
---------- Begin Simulation Statistics ----------
sim_seconds                                  0.015989                       # Number of seconds simulated
sim_ticks                                 15989242500                       # Number of ticks simulated
final_tick                                15989242500                       # Number of ticks from beginning of simulation (restored from checkpoints and never reset)
sim_freq                                 1000000000000                       # Frequency of simulated ticks
host_inst_rate                                  55916                       # Simulator instruction rate (inst/s)
host_op_rate                                    96971                       # Simulator op (including micro ops) rate (op/s)
host_tick_rate                               19329953                       # Simulator tick rate (ticks/s)
host_mem_usage                                2040136                       # Number of bytes of host memory used
host_seconds                                   827.17                       # Real time elapsed on the host
sim_insts                                    46252107                       # Number of instructions simulated
sim_ops                                      80211725                       # Number of ops (including micro ops) simulated
system.voltage_domain.voltage                       1                       # Voltage in Volts
system.clk_domain.clock                          1000                       # Clock period in ticks
system.mem_ctrls0.pwrStateResidencyTicks::UNDEFINED  15989242500                       # Cumulative time (in ticks) in various power states
system.mem_ctrls0.bytes_read::ruby.dir_cntrl0     10300480                       # Number of bytes read from this memory
system.mem_ctrls0.bytes_read::total          10300480                       # Number of bytes read from this memory
system.mem_ctrls0.bytes_written::ruby.dir_cntrl0      1245696                       # Number of bytes written to this memory
system.mem_ctrls0.bytes_written::total        1245696                       # Number of bytes written to this memory
system.mem_ctrls0.num_reads::ruby.dir_cntrl0       160945                       # Number of read requests responded to by this memory
system.mem_ctrls0.num_reads::total             160945                       # Number of read requests responded to by this memory
system.mem_ctrls0.num_writes::ruby.dir_cntrl0        19464                       # Number of write requests responded to by this memory
system.mem_ctrls0.num_writes::total             19464                       # Number of write requests responded to by this memory
system.mem_ctrls0.bw_read::ruby.dir_cntrl0    644213133                       # Total read bandwidth from this memory (bytes/s)
system.mem_ctrls0.bw_read::total            644213133                       # Total read bandwidth from this memory (bytes/s)
system.mem_ctrls0.bw_write::ruby.dir_cntrl0     77908381                       # Write bandwidth from this memory (bytes/s)
system.mem_ctrls0.bw_write::total            77908381                       # Write bandwidth from this memory (bytes/s)
system.mem_ctrls0.bw_total::ruby.dir_cntrl0    722121514                       # Total bandwidth to/from this memory (bytes/s)
system.mem_ctrls0.bw_total::total           722121514                       # Total bandwidth to/from this memory (bytes/s)
system.mem_ctrls0.readReqs                     160945                       # Number of read requests accepted
system.mem_ctrls0.avgNetLat                      0.00                       # Average network latency to DRAM controller
system.mem_ctrls0.writeReqs                     19464                       # Number of write requests accepted
system.mem_ctrls0.readBursts                   160945                       # Number of DRAM read bursts, including those serviced by the write queue
system.mem_ctrls0.writeBursts                   19464                       # Number of DRAM write bursts, including those merged in the write queue
system.mem_ctrls0.bytesReadDRAM              10300032                       # Total number of bytes read from DRAM
system.mem_ctrls0.bytesReadWrQ                    448                       # Total number of bytes read from write queue
system.mem_ctrls0.bytesWritten                1244224                       # Total number of bytes written to DRAM
system.mem_ctrls0.bytesReadSys               10300480                       # Total read bytes from the system interface side
system.mem_ctrls0.bytesWrittenSys             1245696                       # Total written bytes from the system interface side
system.mem_ctrls0.servicedByWrQ                     7                       # Number of DRAM read bursts serviced by the write queue
system.mem_ctrls0.mergedWrBursts                    0                       # Number of DRAM write bursts merged with an existing one
system.mem_ctrls0.neitherReadNorWriteReqs            0                       # Number of requests that are neither read nor write
system.mem_ctrls0.perBankRdBursts::0            10521                       # Per bank write bursts
system.mem_ctrls0.perBankRdBursts::1            10020                       # Per bank write bursts
system.mem_ctrls0.perBankRdBursts::2             9825                       # Per bank write bursts
system.mem_ctrls0.perBankRdBursts::3             9640                       # Per bank write bursts
system.mem_ctrls0.perBankRdBursts::4             9370                       # Per bank write bursts
system.mem_ctrls0.perBankRdBursts::5             9207                       # Per bank write bursts
system.mem_ctrls0.perBankRdBursts::6             9338                       # Per bank write bursts
system.mem_ctrls0.perBankRdBursts::7             9724                       # Per bank write bursts
system.mem_ctrls0.perBankRdBursts::8             9506                       # Per bank write bursts
system.mem_ctrls0.perBankRdBursts::9             9968                       # Per bank write bursts
system.mem_ctrls0.perBankRdBursts::10           10852                       # Per bank write bursts
system.mem_ctrls0.perBankRdBursts::11           10684                       # Per bank write bursts
system.mem_ctrls0.perBankRdBursts::12           10984                       # Per bank write bursts
system.mem_ctrls0.perBankRdBursts::13           10984                       # Per bank write bursts
system.mem_ctrls0.perBankRdBursts::14           10337                       # Per bank write bursts
system.mem_ctrls0.perBankRdBursts::15            9978                       # Per bank write bursts
system.mem_ctrls0.perBankWrBursts::0             1393                       # Per bank write bursts
system.mem_ctrls0.perBankWrBursts::1             1159                       # Per bank write bursts
system.mem_ctrls0.perBankWrBursts::2             1164                       # Per bank write bursts
system.mem_ctrls0.perBankWrBursts::3             1165                       # Per bank write bursts
system.mem_ctrls0.perBankWrBursts::4             1065                       # Per bank write bursts
system.mem_ctrls0.perBankWrBursts::5              934                       # Per bank write bursts
system.mem_ctrls0.perBankWrBursts::6             1000                       # Per bank write bursts
system.mem_ctrls0.perBankWrBursts::7             1095                       # Per bank write bursts
system.mem_ctrls0.perBankWrBursts::8             1039                       # Per bank write bursts
system.mem_ctrls0.perBankWrBursts::9             1132                       # Per bank write bursts
system.mem_ctrls0.perBankWrBursts::10            1452                       # Per bank write bursts
system.mem_ctrls0.perBankWrBursts::11            1422                       # Per bank write bursts
system.mem_ctrls0.perBankWrBursts::12            1476                       # Per bank write bursts
system.mem_ctrls0.perBankWrBursts::13            1433                       # Per bank write bursts
system.mem_ctrls0.perBankWrBursts::14            1278                       # Per bank write bursts
system.mem_ctrls0.perBankWrBursts::15            1234                       # Per bank write bursts
system.mem_ctrls0.numRdRetry                        0                       # Number of times read queue was full causing retry
system.mem_ctrls0.numWrRetry                        0                       # Number of times write queue was full causing retry
system.mem_ctrls0.totGap                  15988115500                       # Total gap between requests
system.mem_ctrls0.readPktSize::0                    0                       # Read request sizes (log2)
system.mem_ctrls0.readPktSize::1                    0                       # Read request sizes (log2)
system.mem_ctrls0.readPktSize::2                    0                       # Read request sizes (log2)
system.mem_ctrls0.readPktSize::3                    0                       # Read request sizes (log2)
system.mem_ctrls0.readPktSize::4                    0                       # Read request sizes (log2)
system.mem_ctrls0.readPktSize::5                    0                       # Read request sizes (log2)
system.mem_ctrls0.readPktSize::6               160945                       # Read request sizes (log2)
system.mem_ctrls0.writePktSize::0                   0                       # Write request sizes (log2)
system.mem_ctrls0.writePktSize::1                   0                       # Write request sizes (log2)
system.mem_ctrls0.writePktSize::2                   0                       # Write request sizes (log2)
system.mem_ctrls0.writePktSize::3                   0                       # Write request sizes (log2)
system.mem_ctrls0.writePktSize::4                   0                       # Write request sizes (log2)
system.mem_ctrls0.writePktSize::5                   0                       # Write request sizes (log2)
system.mem_ctrls0.writePktSize::6               19464                       # Write request sizes (log2)
system.mem_ctrls0.rdQLenPdf::0                  80798                       # What read queue length does an incoming req see
system.mem_ctrls0.rdQLenPdf::1                  42476                       # What read queue length does an incoming req see
system.mem_ctrls0.rdQLenPdf::2                  21045                       # What read queue length does an incoming req see
system.mem_ctrls0.rdQLenPdf::3                   9974                       # What read queue length does an incoming req see
system.mem_ctrls0.rdQLenPdf::4                   4198                       # What read queue length does an incoming req see
system.mem_ctrls0.rdQLenPdf::5                   1632                       # What read queue length does an incoming req see
system.mem_ctrls0.rdQLenPdf::6                    579                       # What read queue length does an incoming req see
system.mem_ctrls0.rdQLenPdf::7                    179                       # What read queue length does an incoming req see
system.mem_ctrls0.rdQLenPdf::8                     38                       # What read queue length does an incoming req see
system.mem_ctrls0.rdQLenPdf::9                     18                       # What read queue length does an incoming req see
system.mem_ctrls0.rdQLenPdf::10                     1                       # What read queue length does an incoming req see
system.mem_ctrls0.rdQLenPdf::11                     0                       # What read queue length does an incoming req see
system.mem_ctrls0.rdQLenPdf::12                     0                       # What read queue length does an incoming req see
system.mem_ctrls0.rdQLenPdf::13                     0                       # What read queue length does an incoming req see
system.mem_ctrls0.rdQLenPdf::14                     0                       # What read queue length does an incoming req see
system.mem_ctrls0.rdQLenPdf::15                     0                       # What read queue length does an incoming req see
system.mem_ctrls0.rdQLenPdf::16                     0                       # What read queue length does an incoming req see
system.mem_ctrls0.rdQLenPdf::17                     0                       # What read queue length does an incoming req see
system.mem_ctrls0.rdQLenPdf::18                     0                       # What read queue length does an incoming req see
system.mem_ctrls0.rdQLenPdf::19                     0                       # What read queue length does an incoming req see
system.mem_ctrls0.rdQLenPdf::20                     0                       # What read queue length does an incoming req see
system.mem_ctrls0.rdQLenPdf::21                     0                       # What read queue length does an incoming req see
system.mem_ctrls0.rdQLenPdf::22                     0                       # What read queue length does an incoming req see
system.mem_ctrls0.rdQLenPdf::23                     0                       # What read queue length does an incoming req see
system.mem_ctrls0.rdQLenPdf::24                     0                       # What read queue length does an incoming req see
system.mem_ctrls0.rdQLenPdf::25                     0                       # What read queue length does an incoming req see
system.mem_ctrls0.rdQLenPdf::26                     0                       # What read queue length does an incoming req see
system.mem_ctrls0.rdQLenPdf::27                     0                       # What read queue length does an incoming req see
system.mem_ctrls0.rdQLenPdf::28                     0                       # What read queue length does an incoming req see
system.mem_ctrls0.rdQLenPdf::29                     0                       # What read queue length does an incoming req see
system.mem_ctrls0.rdQLenPdf::30                     0                       # What read queue length does an incoming req see
system.mem_ctrls0.rdQLenPdf::31                     0                       # What read queue length does an incoming req see
system.mem_ctrls0.wrQLenPdf::0                      1                       # What write queue length does an incoming req see
system.mem_ctrls0.wrQLenPdf::1                      1                       # What write queue length does an incoming req see
system.mem_ctrls0.wrQLenPdf::2                      1                       # What write queue length does an incoming req see
system.mem_ctrls0.wrQLenPdf::3                      1                       # What write queue length does an incoming req see
system.mem_ctrls0.wrQLenPdf::4                      1                       # What write queue length does an incoming req see
system.mem_ctrls0.wrQLenPdf::5                      1                       # What write queue length does an incoming req see
system.mem_ctrls0.wrQLenPdf::6                      1                       # What write queue length does an incoming req see
system.mem_ctrls0.wrQLenPdf::7                      1                       # What write queue length does an incoming req see
system.mem_ctrls0.wrQLenPdf::8                      1                       # What write queue length does an incoming req see
system.mem_ctrls0.wrQLenPdf::9                      1                       # What write queue length does an incoming req see
system.mem_ctrls0.wrQLenPdf::10                     1                       # What write queue length does an incoming req see
system.mem_ctrls0.wrQLenPdf::11                     1                       # What write queue length does an incoming req see
system.mem_ctrls0.wrQLenPdf::12                     1                       # What write queue length does an incoming req see
system.mem_ctrls0.wrQLenPdf::13                     1                       # What write queue length does an incoming req see
system.mem_ctrls0.wrQLenPdf::14                     1                       # What write queue length does an incoming req see
system.mem_ctrls0.wrQLenPdf::15                   280                       # What write queue length does an incoming req see
system.mem_ctrls0.wrQLenPdf::16                   333                       # What write queue length does an incoming req see
system.mem_ctrls0.wrQLenPdf::17                   800                       # What write queue length does an incoming req see
system.mem_ctrls0.wrQLenPdf::18                  1130                       # What write queue length does an incoming req see
system.mem_ctrls0.wrQLenPdf::19                  1212                       # What write queue length does an incoming req see
system.mem_ctrls0.wrQLenPdf::20                  1212                       # What write queue length does an incoming req see
system.mem_ctrls0.wrQLenPdf::21                  1218                       # What write queue length does an incoming req see
system.mem_ctrls0.wrQLenPdf::22                  1212                       # What write queue length does an incoming req see
system.mem_ctrls0.wrQLenPdf::23                  1205                       # What write queue length does an incoming req see
system.mem_ctrls0.wrQLenPdf::24                  1211                       # What write queue length does an incoming req see
system.mem_ctrls0.wrQLenPdf::25                  1220                       # What write queue length does an incoming req see
system.mem_ctrls0.wrQLenPdf::26                  1205                       # What write queue length does an incoming req see
system.mem_ctrls0.wrQLenPdf::27                  1199                       # What write queue length does an incoming req see
system.mem_ctrls0.wrQLenPdf::28                  1195                       # What write queue length does an incoming req see
system.mem_ctrls0.wrQLenPdf::29                  1202                       # What write queue length does an incoming req see
system.mem_ctrls0.wrQLenPdf::30                  1204                       # What write queue length does an incoming req see
system.mem_ctrls0.wrQLenPdf::31                  1190                       # What write queue length does an incoming req see
system.mem_ctrls0.wrQLenPdf::32                  1190                       # What write queue length does an incoming req see
system.mem_ctrls0.wrQLenPdf::33                    27                       # What write queue length does an incoming req see
system.mem_ctrls0.wrQLenPdf::34                     3                       # What write queue length does an incoming req see
system.mem_ctrls0.wrQLenPdf::35                     1                       # What write queue length does an incoming req see
system.mem_ctrls0.wrQLenPdf::36                     0                       # What write queue length does an incoming req see
system.mem_ctrls0.wrQLenPdf::37                     0                       # What write queue length does an incoming req see
system.mem_ctrls0.wrQLenPdf::38                     0                       # What write queue length does an incoming req see
system.mem_ctrls0.wrQLenPdf::39                     0                       # What write queue length does an incoming req see
system.mem_ctrls0.wrQLenPdf::40                     0                       # What write queue length does an incoming req see
system.mem_ctrls0.wrQLenPdf::41                     0                       # What write queue length does an incoming req see
system.mem_ctrls0.wrQLenPdf::42                     0                       # What write queue length does an incoming req see
system.mem_ctrls0.wrQLenPdf::43                     0                       # What write queue length does an incoming req see
system.mem_ctrls0.wrQLenPdf::44                     0                       # What write queue length does an incoming req see
system.mem_ctrls0.wrQLenPdf::45                     0                       # What write queue length does an incoming req see
system.mem_ctrls0.wrQLenPdf::46                     0                       # What write queue length does an incoming req see
system.mem_ctrls0.wrQLenPdf::47                     0                       # What write queue length does an incoming req see
system.mem_ctrls0.wrQLenPdf::48                     0                       # What write queue length does an incoming req see
system.mem_ctrls0.wrQLenPdf::49                     0                       # What write queue length does an incoming req see
system.mem_ctrls0.wrQLenPdf::50                     0                       # What write queue length does an incoming req see
system.mem_ctrls0.wrQLenPdf::51                     0                       # What write queue length does an incoming req see
system.mem_ctrls0.wrQLenPdf::52                     0                       # What write queue length does an incoming req see
system.mem_ctrls0.wrQLenPdf::53                     0                       # What write queue length does an incoming req see
system.mem_ctrls0.wrQLenPdf::54                     0                       # What write queue length does an incoming req see
system.mem_ctrls0.wrQLenPdf::55                     0                       # What write queue length does an incoming req see
system.mem_ctrls0.wrQLenPdf::56                     0                       # What write queue length does an incoming req see
system.mem_ctrls0.wrQLenPdf::57                     0                       # What write queue length does an incoming req see
system.mem_ctrls0.wrQLenPdf::58                     0                       # What write queue length does an incoming req see
system.mem_ctrls0.wrQLenPdf::59                     0                       # What write queue length does an incoming req see
system.mem_ctrls0.wrQLenPdf::60                     0                       # What write queue length does an incoming req see
system.mem_ctrls0.wrQLenPdf::61                     0                       # What write queue length does an incoming req see
system.mem_ctrls0.wrQLenPdf::62                     0                       # What write queue length does an incoming req see
system.mem_ctrls0.wrQLenPdf::63                     0                       # What write queue length does an incoming req see
system.mem_ctrls0.bytesPerActivate::samples        98278                       # Bytes accessed per row activation
system.mem_ctrls0.bytesPerActivate::mean   117.459452                       # Bytes accessed per row activation
system.mem_ctrls0.bytesPerActivate::gmean    89.995323                       # Bytes accessed per row activation
system.mem_ctrls0.bytesPerActivate::stdev   125.506318                       # Bytes accessed per row activation
system.mem_ctrls0.bytesPerActivate::0-127        69370     70.59%     70.59% # Bytes accessed per row activation
system.mem_ctrls0.bytesPerActivate::128-255        18012     18.33%     88.91% # Bytes accessed per row activation
system.mem_ctrls0.bytesPerActivate::256-383         4587      4.67%     93.58% # Bytes accessed per row activation
system.mem_ctrls0.bytesPerActivate::384-511         2764      2.81%     96.39% # Bytes accessed per row activation
system.mem_ctrls0.bytesPerActivate::512-639         1681      1.71%     98.10% # Bytes accessed per row activation
system.mem_ctrls0.bytesPerActivate::640-767         1369      1.39%     99.50% # Bytes accessed per row activation
system.mem_ctrls0.bytesPerActivate::768-895          233      0.24%     99.73% # Bytes accessed per row activation
system.mem_ctrls0.bytesPerActivate::896-1023          129      0.13%     99.86% # Bytes accessed per row activation
system.mem_ctrls0.bytesPerActivate::1024-1151          133      0.14%    100.00% # Bytes accessed per row activation
system.mem_ctrls0.bytesPerActivate::total        98278                       # Bytes accessed per row activation
system.mem_ctrls0.rdPerTurnAround::samples         1175                       # Reads before turning the bus around for writes
system.mem_ctrls0.rdPerTurnAround::mean    136.954894                       # Reads before turning the bus around for writes
system.mem_ctrls0.rdPerTurnAround::gmean    56.538020                       # Reads before turning the bus around for writes
system.mem_ctrls0.rdPerTurnAround::stdev  1883.612098                       # Reads before turning the bus around for writes
system.mem_ctrls0.rdPerTurnAround::0-2047         1173     99.83%     99.83% # Reads before turning the bus around for writes
system.mem_ctrls0.rdPerTurnAround::2048-4095            1      0.09%     99.91% # Reads before turning the bus around for writes
system.mem_ctrls0.rdPerTurnAround::63488-65535            1      0.09%    100.00% # Reads before turning the bus around for writes
system.mem_ctrls0.rdPerTurnAround::total         1175                       # Reads before turning the bus around for writes
system.mem_ctrls0.wrPerTurnAround::samples         1175                       # Writes before turning the bus around for reads
system.mem_ctrls0.wrPerTurnAround::mean     16.545532                       # Writes before turning the bus around for reads
system.mem_ctrls0.wrPerTurnAround::gmean    16.522848                       # Writes before turning the bus around for reads
system.mem_ctrls0.wrPerTurnAround::stdev     0.882980                       # Writes before turning the bus around for reads
system.mem_ctrls0.wrPerTurnAround::16             837     71.23%     71.23% # Writes before turning the bus around for reads
system.mem_ctrls0.wrPerTurnAround::17              43      3.66%     74.89% # Writes before turning the bus around for reads
system.mem_ctrls0.wrPerTurnAround::18             288     24.51%     99.40% # Writes before turning the bus around for reads
system.mem_ctrls0.wrPerTurnAround::19               6      0.51%     99.91% # Writes before turning the bus around for reads
system.mem_ctrls0.wrPerTurnAround::20               1      0.09%    100.00% # Writes before turning the bus around for reads
system.mem_ctrls0.wrPerTurnAround::total         1175                       # Writes before turning the bus around for reads
system.mem_ctrls0.totQLat                  4366830500                       # Total ticks spent queuing
system.mem_ctrls0.totMemAccLat             7384418000                       # Total ticks spent from burst creation until serviced by the DRAM
system.mem_ctrls0.totBusLat                 804690000                       # Total ticks spent in databus transfers
system.mem_ctrls0.avgQLat                    27133.62                       # Average queueing delay per DRAM burst
system.mem_ctrls0.avgBusLat                   5000.00                       # Average bus latency per DRAM burst
system.mem_ctrls0.avgMemAccLat               45883.62                       # Average memory access latency per DRAM burst
system.mem_ctrls0.avgRdBW                      644.19                       # Average DRAM read bandwidth in MiByte/s
system.mem_ctrls0.avgWrBW                       77.82                       # Average achieved write bandwidth in MiByte/s
system.mem_ctrls0.avgRdBWSys                   644.21                       # Average system read bandwidth in MiByte/s
system.mem_ctrls0.avgWrBWSys                    77.91                       # Average system write bandwidth in MiByte/s
system.mem_ctrls0.peakBW                     12800.00                       # Theoretical peak bandwidth in MiByte/s
system.mem_ctrls0.busUtil                        5.64                       # Data bus utilization in percentage
system.mem_ctrls0.busUtilRead                    5.03                       # Data bus utilization in percentage for reads
system.mem_ctrls0.busUtilWrite                   0.61                       # Data bus utilization in percentage for writes
system.mem_ctrls0.avgRdQLen                      1.54                       # Average read queue length when enqueuing
system.mem_ctrls0.avgWrQLen                     13.18                       # Average write queue length when enqueuing
system.mem_ctrls0.readRowHits                   78076                       # Number of row buffer hits during reads
system.mem_ctrls0.writeRowHits                   4021                       # Number of row buffer hits during writes
system.mem_ctrls0.readRowHitRate                48.51                       # Row buffer hit rate for reads
system.mem_ctrls0.writeRowHitRate               20.66                       # Row buffer hit rate for writes
system.mem_ctrls0.avgGap                     88621.50                       # Average gap between requests
system.mem_ctrls0.pageHitRate                   45.51                       # Row buffer hit rate, read and write combined
system.mem_ctrls0_0.actEnergy               329104020                       # Energy for activate commands per rank (pJ)
system.mem_ctrls0_0.preEnergy               174922935                       # Energy for precharge commands per rank (pJ)
system.mem_ctrls0_0.readEnergy              554385300                       # Energy for read commands per rank (pJ)
system.mem_ctrls0_0.writeEnergy              46849500                       # Energy for write commands per rank (pJ)
system.mem_ctrls0_0.refreshEnergy        1249563120.000000                       # Energy for refresh commands per rank (pJ)
system.mem_ctrls0_0.actBackEnergy          1423883370                       # Energy for active background per rank (pJ)
system.mem_ctrls0_0.preBackEnergy            32701920                       # Energy for precharge background per rank (pJ)
system.mem_ctrls0_0.actPowerDownEnergy     5271755010                       # Energy for active power-down per rank (pJ)
system.mem_ctrls0_0.prePowerDownEnergy      307095840                       # Energy for precharge power-down per rank (pJ)
system.mem_ctrls0_0.selfRefreshEnergy       121021860                       # Energy for self refresh per rank (pJ)
system.mem_ctrls0_0.totalEnergy            9511638015                       # Total energy per rank (pJ)
system.mem_ctrls0_0.averagePower           594.877338                       # Core power per rank (mW)
system.mem_ctrls0_0.totalIdleTime         12780382500                       # Total Idle time Per DRAM Rank
system.mem_ctrls0_0.memoryStateTime::IDLE     20877750                       # Time in different power states
system.mem_ctrls0_0.memoryStateTime::REF    528856000                       # Time in different power states
system.mem_ctrls0_0.memoryStateTime::SREF    420147750                       # Time in different power states
system.mem_ctrls0_0.memoryStateTime::PRE_PDN    800006250                       # Time in different power states
system.mem_ctrls0_0.memoryStateTime::ACT   2658748500                       # Time in different power states
system.mem_ctrls0_0.memoryStateTime::ACT_PDN  11560606250                       # Time in different power states
system.mem_ctrls0_1.actEnergy               372629460                       # Energy for activate commands per rank (pJ)
system.mem_ctrls0_1.preEnergy               198042075                       # Energy for precharge commands per rank (pJ)
system.mem_ctrls0_1.readEnergy              594712020                       # Energy for read commands per rank (pJ)
system.mem_ctrls0_1.writeEnergy              54632520                       # Energy for write commands per rank (pJ)
system.mem_ctrls0_1.refreshEnergy        1230509280.000000                       # Energy for refresh commands per rank (pJ)
system.mem_ctrls0_1.actBackEnergy          1550547060                       # Energy for active background per rank (pJ)
system.mem_ctrls0_1.preBackEnergy            31054080                       # Energy for precharge background per rank (pJ)
system.mem_ctrls0_1.actPowerDownEnergy     5224755660                       # Energy for active power-down per rank (pJ)
system.mem_ctrls0_1.prePowerDownEnergy      209987040                       # Energy for precharge power-down per rank (pJ)
system.mem_ctrls0_1.selfRefreshEnergy       129160710                       # Energy for self refresh per rank (pJ)
system.mem_ctrls0_1.totalEnergy            9596130525                       # Total energy per rank (pJ)
system.mem_ctrls0_1.averagePower           600.161673                       # Core power per rank (mW)
system.mem_ctrls0_1.totalIdleTime         12507457000                       # Total Idle time Per DRAM Rank
system.mem_ctrls0_1.memoryStateTime::IDLE     14968750                       # Time in different power states
system.mem_ctrls0_1.memoryStateTime::REF    520682000                       # Time in different power states
system.mem_ctrls0_1.memoryStateTime::SREF    503182500                       # Time in different power states
system.mem_ctrls0_1.memoryStateTime::PRE_PDN    546670500                       # Time in different power states
system.mem_ctrls0_1.memoryStateTime::ACT   2945130500                       # Time in different power states
system.mem_ctrls0_1.memoryStateTime::ACT_PDN  11458608250                       # Time in different power states
system.mem_ctrls1.pwrStateResidencyTicks::UNDEFINED  15989242500                       # Cumulative time (in ticks) in various power states
system.mem_ctrls1.bytes_read::ruby.dir_cntrl1     10272256                       # Number of bytes read from this memory
system.mem_ctrls1.bytes_read::total          10272256                       # Number of bytes read from this memory
system.mem_ctrls1.bytes_written::ruby.dir_cntrl1      1234624                       # Number of bytes written to this memory
system.mem_ctrls1.bytes_written::total        1234624                       # Number of bytes written to this memory
system.mem_ctrls1.num_reads::ruby.dir_cntrl1       160504                       # Number of read requests responded to by this memory
system.mem_ctrls1.num_reads::total             160504                       # Number of read requests responded to by this memory
system.mem_ctrls1.num_writes::ruby.dir_cntrl1        19291                       # Number of write requests responded to by this memory
system.mem_ctrls1.num_writes::total             19291                       # Number of write requests responded to by this memory
system.mem_ctrls1.bw_read::ruby.dir_cntrl1    642447946                       # Total read bandwidth from this memory (bytes/s)
system.mem_ctrls1.bw_read::total            642447946                       # Total read bandwidth from this memory (bytes/s)
system.mem_ctrls1.bw_write::ruby.dir_cntrl1     77215916                       # Write bandwidth from this memory (bytes/s)
system.mem_ctrls1.bw_write::total            77215916                       # Write bandwidth from this memory (bytes/s)
system.mem_ctrls1.bw_total::ruby.dir_cntrl1    719663861                       # Total bandwidth to/from this memory (bytes/s)
system.mem_ctrls1.bw_total::total           719663861                       # Total bandwidth to/from this memory (bytes/s)
system.mem_ctrls1.readReqs                     160504                       # Number of read requests accepted
system.mem_ctrls1.avgNetLat                      0.00                       # Average network latency to DRAM controller
system.mem_ctrls1.writeReqs                     19291                       # Number of write requests accepted
system.mem_ctrls1.readBursts                   160504                       # Number of DRAM read bursts, including those serviced by the write queue
system.mem_ctrls1.writeBursts                   19291                       # Number of DRAM write bursts, including those merged in the write queue
system.mem_ctrls1.bytesReadDRAM              10271552                       # Total number of bytes read from DRAM
system.mem_ctrls1.bytesReadWrQ                    704                       # Total number of bytes read from write queue
system.mem_ctrls1.bytesWritten                1233152                       # Total number of bytes written to DRAM
system.mem_ctrls1.bytesReadSys               10272256                       # Total read bytes from the system interface side
system.mem_ctrls1.bytesWrittenSys             1234624                       # Total written bytes from the system interface side
system.mem_ctrls1.servicedByWrQ                    11                       # Number of DRAM read bursts serviced by the write queue
system.mem_ctrls1.mergedWrBursts                    0                       # Number of DRAM write bursts merged with an existing one
system.mem_ctrls1.neitherReadNorWriteReqs            0                       # Number of requests that are neither read nor write
system.mem_ctrls1.perBankRdBursts::0            10393                       # Per bank write bursts
system.mem_ctrls1.perBankRdBursts::1             9936                       # Per bank write bursts
system.mem_ctrls1.perBankRdBursts::2             9808                       # Per bank write bursts
system.mem_ctrls1.perBankRdBursts::3             9613                       # Per bank write bursts
system.mem_ctrls1.perBankRdBursts::4             9336                       # Per bank write bursts
system.mem_ctrls1.perBankRdBursts::5             9246                       # Per bank write bursts
system.mem_ctrls1.perBankRdBursts::6             9337                       # Per bank write bursts
system.mem_ctrls1.perBankRdBursts::7             9708                       # Per bank write bursts
system.mem_ctrls1.perBankRdBursts::8             9468                       # Per bank write bursts
system.mem_ctrls1.perBankRdBursts::9             9921                       # Per bank write bursts
system.mem_ctrls1.perBankRdBursts::10           10820                       # Per bank write bursts
system.mem_ctrls1.perBankRdBursts::11           10664                       # Per bank write bursts
system.mem_ctrls1.perBankRdBursts::12           10980                       # Per bank write bursts
system.mem_ctrls1.perBankRdBursts::13           10982                       # Per bank write bursts
system.mem_ctrls1.perBankRdBursts::14           10317                       # Per bank write bursts
system.mem_ctrls1.perBankRdBursts::15            9964                       # Per bank write bursts
system.mem_ctrls1.perBankWrBursts::0             1347                       # Per bank write bursts
system.mem_ctrls1.perBankWrBursts::1             1135                       # Per bank write bursts
system.mem_ctrls1.perBankWrBursts::2             1153                       # Per bank write bursts
system.mem_ctrls1.perBankWrBursts::3             1166                       # Per bank write bursts
system.mem_ctrls1.perBankWrBursts::4             1041                       # Per bank write bursts
system.mem_ctrls1.perBankWrBursts::5              954                       # Per bank write bursts
system.mem_ctrls1.perBankWrBursts::6              980                       # Per bank write bursts
system.mem_ctrls1.perBankWrBursts::7             1094                       # Per bank write bursts
system.mem_ctrls1.perBankWrBursts::8              992                       # Per bank write bursts
system.mem_ctrls1.perBankWrBursts::9             1129                       # Per bank write bursts
system.mem_ctrls1.perBankWrBursts::10            1443                       # Per bank write bursts
system.mem_ctrls1.perBankWrBursts::11            1413                       # Per bank write bursts
system.mem_ctrls1.perBankWrBursts::12            1464                       # Per bank write bursts
system.mem_ctrls1.perBankWrBursts::13            1450                       # Per bank write bursts
system.mem_ctrls1.perBankWrBursts::14            1287                       # Per bank write bursts
system.mem_ctrls1.perBankWrBursts::15            1220                       # Per bank write bursts
system.mem_ctrls1.numRdRetry                        0                       # Number of times read queue was full causing retry
system.mem_ctrls1.numWrRetry                        0                       # Number of times write queue was full causing retry
system.mem_ctrls1.totGap                  15988652000                       # Total gap between requests
system.mem_ctrls1.readPktSize::0                    0                       # Read request sizes (log2)
system.mem_ctrls1.readPktSize::1                    0                       # Read request sizes (log2)
system.mem_ctrls1.readPktSize::2                    0                       # Read request sizes (log2)
system.mem_ctrls1.readPktSize::3                    0                       # Read request sizes (log2)
system.mem_ctrls1.readPktSize::4                    0                       # Read request sizes (log2)
system.mem_ctrls1.readPktSize::5                    0                       # Read request sizes (log2)
system.mem_ctrls1.readPktSize::6               160504                       # Read request sizes (log2)
system.mem_ctrls1.writePktSize::0                   0                       # Write request sizes (log2)
system.mem_ctrls1.writePktSize::1                   0                       # Write request sizes (log2)
system.mem_ctrls1.writePktSize::2                   0                       # Write request sizes (log2)
system.mem_ctrls1.writePktSize::3                   0                       # Write request sizes (log2)
system.mem_ctrls1.writePktSize::4                   0                       # Write request sizes (log2)
system.mem_ctrls1.writePktSize::5                   0                       # Write request sizes (log2)
system.mem_ctrls1.writePktSize::6               19291                       # Write request sizes (log2)
system.mem_ctrls1.rdQLenPdf::0                  80583                       # What read queue length does an incoming req see
system.mem_ctrls1.rdQLenPdf::1                  41820                       # What read queue length does an incoming req see
system.mem_ctrls1.rdQLenPdf::2                  21084                       # What read queue length does an incoming req see
system.mem_ctrls1.rdQLenPdf::3                   9948                       # What read queue length does an incoming req see
system.mem_ctrls1.rdQLenPdf::4                   4356                       # What read queue length does an incoming req see
system.mem_ctrls1.rdQLenPdf::5                   1774                       # What read queue length does an incoming req see
system.mem_ctrls1.rdQLenPdf::6                    651                       # What read queue length does an incoming req see
system.mem_ctrls1.rdQLenPdf::7                    210                       # What read queue length does an incoming req see
system.mem_ctrls1.rdQLenPdf::8                     57                       # What read queue length does an incoming req see
system.mem_ctrls1.rdQLenPdf::9                      9                       # What read queue length does an incoming req see
system.mem_ctrls1.rdQLenPdf::10                     1                       # What read queue length does an incoming req see
system.mem_ctrls1.rdQLenPdf::11                     0                       # What read queue length does an incoming req see
system.mem_ctrls1.rdQLenPdf::12                     0                       # What read queue length does an incoming req see
system.mem_ctrls1.rdQLenPdf::13                     0                       # What read queue length does an incoming req see
system.mem_ctrls1.rdQLenPdf::14                     0                       # What read queue length does an incoming req see
system.mem_ctrls1.rdQLenPdf::15                     0                       # What read queue length does an incoming req see
system.mem_ctrls1.rdQLenPdf::16                     0                       # What read queue length does an incoming req see
system.mem_ctrls1.rdQLenPdf::17                     0                       # What read queue length does an incoming req see
system.mem_ctrls1.rdQLenPdf::18                     0                       # What read queue length does an incoming req see
system.mem_ctrls1.rdQLenPdf::19                     0                       # What read queue length does an incoming req see
system.mem_ctrls1.rdQLenPdf::20                     0                       # What read queue length does an incoming req see
system.mem_ctrls1.rdQLenPdf::21                     0                       # What read queue length does an incoming req see
system.mem_ctrls1.rdQLenPdf::22                     0                       # What read queue length does an incoming req see
system.mem_ctrls1.rdQLenPdf::23                     0                       # What read queue length does an incoming req see
system.mem_ctrls1.rdQLenPdf::24                     0                       # What read queue length does an incoming req see
system.mem_ctrls1.rdQLenPdf::25                     0                       # What read queue length does an incoming req see
system.mem_ctrls1.rdQLenPdf::26                     0                       # What read queue length does an incoming req see
system.mem_ctrls1.rdQLenPdf::27                     0                       # What read queue length does an incoming req see
system.mem_ctrls1.rdQLenPdf::28                     0                       # What read queue length does an incoming req see
system.mem_ctrls1.rdQLenPdf::29                     0                       # What read queue length does an incoming req see
system.mem_ctrls1.rdQLenPdf::30                     0                       # What read queue length does an incoming req see
system.mem_ctrls1.rdQLenPdf::31                     0                       # What read queue length does an incoming req see
system.mem_ctrls1.wrQLenPdf::0                      1                       # What write queue length does an incoming req see
system.mem_ctrls1.wrQLenPdf::1                      1                       # What write queue length does an incoming req see
system.mem_ctrls1.wrQLenPdf::2                      1                       # What write queue length does an incoming req see
system.mem_ctrls1.wrQLenPdf::3                      1                       # What write queue length does an incoming req see
system.mem_ctrls1.wrQLenPdf::4                      1                       # What write queue length does an incoming req see
system.mem_ctrls1.wrQLenPdf::5                      1                       # What write queue length does an incoming req see
system.mem_ctrls1.wrQLenPdf::6                      1                       # What write queue length does an incoming req see
system.mem_ctrls1.wrQLenPdf::7                      1                       # What write queue length does an incoming req see
system.mem_ctrls1.wrQLenPdf::8                      1                       # What write queue length does an incoming req see
system.mem_ctrls1.wrQLenPdf::9                      1                       # What write queue length does an incoming req see
system.mem_ctrls1.wrQLenPdf::10                     1                       # What write queue length does an incoming req see
system.mem_ctrls1.wrQLenPdf::11                     1                       # What write queue length does an incoming req see
system.mem_ctrls1.wrQLenPdf::12                     1                       # What write queue length does an incoming req see
system.mem_ctrls1.wrQLenPdf::13                     1                       # What write queue length does an incoming req see
system.mem_ctrls1.wrQLenPdf::14                     1                       # What write queue length does an incoming req see
system.mem_ctrls1.wrQLenPdf::15                   258                       # What write queue length does an incoming req see
system.mem_ctrls1.wrQLenPdf::16                   330                       # What write queue length does an incoming req see
system.mem_ctrls1.wrQLenPdf::17                   779                       # What write queue length does an incoming req see
system.mem_ctrls1.wrQLenPdf::18                  1111                       # What write queue length does an incoming req see
system.mem_ctrls1.wrQLenPdf::19                  1197                       # What write queue length does an incoming req see
system.mem_ctrls1.wrQLenPdf::20                  1214                       # What write queue length does an incoming req see
system.mem_ctrls1.wrQLenPdf::21                  1208                       # What write queue length does an incoming req see
system.mem_ctrls1.wrQLenPdf::22                  1198                       # What write queue length does an incoming req see
system.mem_ctrls1.wrQLenPdf::23                  1212                       # What write queue length does an incoming req see
system.mem_ctrls1.wrQLenPdf::24                  1206                       # What write queue length does an incoming req see
system.mem_ctrls1.wrQLenPdf::25                  1196                       # What write queue length does an incoming req see
system.mem_ctrls1.wrQLenPdf::26                  1192                       # What write queue length does an incoming req see
system.mem_ctrls1.wrQLenPdf::27                  1195                       # What write queue length does an incoming req see
system.mem_ctrls1.wrQLenPdf::28                  1189                       # What write queue length does an incoming req see
system.mem_ctrls1.wrQLenPdf::29                  1189                       # What write queue length does an incoming req see
system.mem_ctrls1.wrQLenPdf::30                  1200                       # What write queue length does an incoming req see
system.mem_ctrls1.wrQLenPdf::31                  1189                       # What write queue length does an incoming req see
system.mem_ctrls1.wrQLenPdf::32                  1186                       # What write queue length does an incoming req see
system.mem_ctrls1.wrQLenPdf::33                    22                       # What write queue length does an incoming req see
system.mem_ctrls1.wrQLenPdf::34                     4                       # What write queue length does an incoming req see
system.mem_ctrls1.wrQLenPdf::35                     1                       # What write queue length does an incoming req see
system.mem_ctrls1.wrQLenPdf::36                     0                       # What write queue length does an incoming req see
system.mem_ctrls1.wrQLenPdf::37                     0                       # What write queue length does an incoming req see
system.mem_ctrls1.wrQLenPdf::38                     0                       # What write queue length does an incoming req see
system.mem_ctrls1.wrQLenPdf::39                     0                       # What write queue length does an incoming req see
system.mem_ctrls1.wrQLenPdf::40                     0                       # What write queue length does an incoming req see
system.mem_ctrls1.wrQLenPdf::41                     0                       # What write queue length does an incoming req see
system.mem_ctrls1.wrQLenPdf::42                     0                       # What write queue length does an incoming req see
system.mem_ctrls1.wrQLenPdf::43                     0                       # What write queue length does an incoming req see
system.mem_ctrls1.wrQLenPdf::44                     0                       # What write queue length does an incoming req see
system.mem_ctrls1.wrQLenPdf::45                     0                       # What write queue length does an incoming req see
system.mem_ctrls1.wrQLenPdf::46                     0                       # What write queue length does an incoming req see
system.mem_ctrls1.wrQLenPdf::47                     0                       # What write queue length does an incoming req see
system.mem_ctrls1.wrQLenPdf::48                     0                       # What write queue length does an incoming req see
system.mem_ctrls1.wrQLenPdf::49                     0                       # What write queue length does an incoming req see
system.mem_ctrls1.wrQLenPdf::50                     0                       # What write queue length does an incoming req see
system.mem_ctrls1.wrQLenPdf::51                     0                       # What write queue length does an incoming req see
system.mem_ctrls1.wrQLenPdf::52                     0                       # What write queue length does an incoming req see
system.mem_ctrls1.wrQLenPdf::53                     0                       # What write queue length does an incoming req see
system.mem_ctrls1.wrQLenPdf::54                     0                       # What write queue length does an incoming req see
system.mem_ctrls1.wrQLenPdf::55                     0                       # What write queue length does an incoming req see
system.mem_ctrls1.wrQLenPdf::56                     0                       # What write queue length does an incoming req see
system.mem_ctrls1.wrQLenPdf::57                     0                       # What write queue length does an incoming req see
system.mem_ctrls1.wrQLenPdf::58                     0                       # What write queue length does an incoming req see
system.mem_ctrls1.wrQLenPdf::59                     0                       # What write queue length does an incoming req see
system.mem_ctrls1.wrQLenPdf::60                     0                       # What write queue length does an incoming req see
system.mem_ctrls1.wrQLenPdf::61                     0                       # What write queue length does an incoming req see
system.mem_ctrls1.wrQLenPdf::62                     0                       # What write queue length does an incoming req see
system.mem_ctrls1.wrQLenPdf::63                     0                       # What write queue length does an incoming req see
system.mem_ctrls1.bytesPerActivate::samples        97890                       # Bytes accessed per row activation
system.mem_ctrls1.bytesPerActivate::mean   117.519665                       # Bytes accessed per row activation
system.mem_ctrls1.bytesPerActivate::gmean    90.088409                       # Bytes accessed per row activation
system.mem_ctrls1.bytesPerActivate::stdev   125.311279                       # Bytes accessed per row activation
system.mem_ctrls1.bytesPerActivate::0-127        68940     70.43%     70.43% # Bytes accessed per row activation
system.mem_ctrls1.bytesPerActivate::128-255        18046     18.43%     88.86% # Bytes accessed per row activation
system.mem_ctrls1.bytesPerActivate::256-383         4677      4.78%     93.64% # Bytes accessed per row activation
system.mem_ctrls1.bytesPerActivate::384-511         2654      2.71%     96.35% # Bytes accessed per row activation
system.mem_ctrls1.bytesPerActivate::512-639         1733      1.77%     98.12% # Bytes accessed per row activation
system.mem_ctrls1.bytesPerActivate::640-767         1352      1.38%     99.50% # Bytes accessed per row activation
system.mem_ctrls1.bytesPerActivate::768-895          222      0.23%     99.73% # Bytes accessed per row activation
system.mem_ctrls1.bytesPerActivate::896-1023          145      0.15%     99.88% # Bytes accessed per row activation
system.mem_ctrls1.bytesPerActivate::1024-1151          121      0.12%    100.00% # Bytes accessed per row activation
system.mem_ctrls1.bytesPerActivate::total        97890                       # Bytes accessed per row activation
system.mem_ctrls1.rdPerTurnAround::samples         1166                       # Reads before turning the bus around for writes
system.mem_ctrls1.rdPerTurnAround::mean    137.631218                       # Reads before turning the bus around for writes
system.mem_ctrls1.rdPerTurnAround::gmean    56.602971                       # Reads before turning the bus around for writes
system.mem_ctrls1.rdPerTurnAround::stdev  1926.371259                       # Reads before turning the bus around for writes
system.mem_ctrls1.rdPerTurnAround::0-4095         1165     99.91%     99.91% # Reads before turning the bus around for writes
system.mem_ctrls1.rdPerTurnAround::65536-69631            1      0.09%    100.00% # Reads before turning the bus around for writes
system.mem_ctrls1.rdPerTurnAround::total         1166                       # Reads before turning the bus around for writes
system.mem_ctrls1.wrPerTurnAround::samples         1166                       # Writes before turning the bus around for reads
system.mem_ctrls1.wrPerTurnAround::mean     16.524871                       # Writes before turning the bus around for reads
system.mem_ctrls1.wrPerTurnAround::gmean    16.502584                       # Writes before turning the bus around for reads
system.mem_ctrls1.wrPerTurnAround::stdev     0.875405                       # Writes before turning the bus around for reads
system.mem_ctrls1.wrPerTurnAround::16             846     72.56%     72.56% # Writes before turning the bus around for reads
system.mem_ctrls1.wrPerTurnAround::17              37      3.17%     75.73% # Writes before turning the bus around for reads
system.mem_ctrls1.wrPerTurnAround::18             274     23.50%     99.23% # Writes before turning the bus around for reads
system.mem_ctrls1.wrPerTurnAround::19               9      0.77%    100.00% # Writes before turning the bus around for reads
system.mem_ctrls1.wrPerTurnAround::total         1166                       # Writes before turning the bus around for reads
system.mem_ctrls1.totQLat                  4393674500                       # Total ticks spent queuing
system.mem_ctrls1.totMemAccLat             7402918250                       # Total ticks spent from burst creation until serviced by the DRAM
system.mem_ctrls1.totBusLat                 802465000                       # Total ticks spent in databus transfers
system.mem_ctrls1.avgQLat                    27376.11                       # Average queueing delay per DRAM burst
system.mem_ctrls1.avgBusLat                   5000.00                       # Average bus latency per DRAM burst
system.mem_ctrls1.avgMemAccLat               46126.11                       # Average memory access latency per DRAM burst
system.mem_ctrls1.avgRdBW                      642.40                       # Average DRAM read bandwidth in MiByte/s
system.mem_ctrls1.avgWrBW                       77.12                       # Average achieved write bandwidth in MiByte/s
system.mem_ctrls1.avgRdBWSys                   642.45                       # Average system read bandwidth in MiByte/s
system.mem_ctrls1.avgWrBWSys                    77.22                       # Average system write bandwidth in MiByte/s
system.mem_ctrls1.peakBW                     12800.00                       # Theoretical peak bandwidth in MiByte/s
system.mem_ctrls1.busUtil                        5.62                       # Data bus utilization in percentage
system.mem_ctrls1.busUtilRead                    5.02                       # Data bus utilization in percentage for reads
system.mem_ctrls1.busUtilWrite                   0.60                       # Data bus utilization in percentage for writes
system.mem_ctrls1.avgRdQLen                      1.54                       # Average read queue length when enqueuing
system.mem_ctrls1.avgWrQLen                     13.08                       # Average write queue length when enqueuing
system.mem_ctrls1.readRowHits                   77967                       # Number of row buffer hits during reads
system.mem_ctrls1.writeRowHits                   3898                       # Number of row buffer hits during writes
system.mem_ctrls1.readRowHitRate                48.58                       # Row buffer hit rate for reads
system.mem_ctrls1.writeRowHitRate               20.21                       # Row buffer hit rate for writes
system.mem_ctrls1.avgGap                     88927.12                       # Average gap between requests
system.mem_ctrls1.pageHitRate                   45.54                       # Row buffer hit rate, read and write combined
system.mem_ctrls1_0.actEnergy               326683560                       # Energy for activate commands per rank (pJ)
system.mem_ctrls1_0.preEnergy               173625045                       # Energy for precharge commands per rank (pJ)
system.mem_ctrls1_0.readEnergy              552471780                       # Energy for read commands per rank (pJ)
system.mem_ctrls1_0.writeEnergy              46301400                       # Energy for write commands per rank (pJ)
system.mem_ctrls1_0.refreshEnergy        1242802080.000000                       # Energy for refresh commands per rank (pJ)
system.mem_ctrls1_0.actBackEnergy          1414129530                       # Energy for active background per rank (pJ)
system.mem_ctrls1_0.preBackEnergy            32715360                       # Energy for precharge background per rank (pJ)
system.mem_ctrls1_0.actPowerDownEnergy     5266393590                       # Energy for active power-down per rank (pJ)
system.mem_ctrls1_0.prePowerDownEnergy      309037920                       # Energy for precharge power-down per rank (pJ)
system.mem_ctrls1_0.selfRefreshEnergy       123801765                       # Energy for self refresh per rank (pJ)
system.mem_ctrls1_0.totalEnergy            9488075610                       # Total energy per rank (pJ)
system.mem_ctrls1_0.averagePower           593.403697                       # Core power per rank (mW)
system.mem_ctrls1_0.totalIdleTime         12801736750                       # Total Idle time Per DRAM Rank
system.mem_ctrls1_0.memoryStateTime::IDLE     19473500                       # Time in different power states
system.mem_ctrls1_0.memoryStateTime::REF    525918000                       # Time in different power states
system.mem_ctrls1_0.memoryStateTime::SREF    448734000                       # Time in different power states
system.mem_ctrls1_0.memoryStateTime::PRE_PDN    804739750                       # Time in different power states
system.mem_ctrls1_0.memoryStateTime::ACT   2640518250                       # Time in different power states
system.mem_ctrls1_0.memoryStateTime::ACT_PDN  11549859000                       # Time in different power states
system.mem_ctrls1_1.actEnergy               372293880                       # Energy for activate commands per rank (pJ)
system.mem_ctrls1_1.preEnergy               197867505                       # Energy for precharge commands per rank (pJ)
system.mem_ctrls1_1.readEnergy              593448240                       # Energy for read commands per rank (pJ)
system.mem_ctrls1_1.writeEnergy              54277560                       # Energy for write commands per rank (pJ)
system.mem_ctrls1_1.refreshEnergy        1250792400.000000                       # Energy for refresh commands per rank (pJ)
system.mem_ctrls1_1.actBackEnergy          1547214840                       # Energy for active background per rank (pJ)
system.mem_ctrls1_1.preBackEnergy            32684640                       # Energy for precharge background per rank (pJ)
system.mem_ctrls1_1.actPowerDownEnergy     5227010010                       # Energy for active power-down per rank (pJ)
system.mem_ctrls1_1.prePowerDownEnergy      262231200                       # Energy for precharge power-down per rank (pJ)
system.mem_ctrls1_1.selfRefreshEnergy       104921355                       # Energy for self refresh per rank (pJ)
system.mem_ctrls1_1.totalEnergy            9643007130                       # Total energy per rank (pJ)
system.mem_ctrls1_1.averagePower           603.093432                       # Core power per rank (mW)
system.mem_ctrls1_1.totalIdleTime         12511117500                       # Total Idle time Per DRAM Rank
system.mem_ctrls1_1.memoryStateTime::IDLE     19618250                       # Time in different power states
system.mem_ctrls1_1.memoryStateTime::REF    529364000                       # Time in different power states
system.mem_ctrls1_1.memoryStateTime::SREF    364885000                       # Time in different power states
system.mem_ctrls1_1.memoryStateTime::PRE_PDN    682679000                       # Time in different power states
system.mem_ctrls1_1.memoryStateTime::ACT   2928986250                       # Time in different power states
system.mem_ctrls1_1.memoryStateTime::ACT_PDN  11463710000                       # Time in different power states
system.mem_ctrls2.pwrStateResidencyTicks::UNDEFINED  15989242500                       # Cumulative time (in ticks) in various power states
system.mem_ctrls2.bytes_read::ruby.dir_cntrl2     10288640                       # Number of bytes read from this memory
system.mem_ctrls2.bytes_read::total          10288640                       # Number of bytes read from this memory
system.mem_ctrls2.bytes_written::ruby.dir_cntrl2      1244032                       # Number of bytes written to this memory
system.mem_ctrls2.bytes_written::total        1244032                       # Number of bytes written to this memory
system.mem_ctrls2.num_reads::ruby.dir_cntrl2       160760                       # Number of read requests responded to by this memory
system.mem_ctrls2.num_reads::total             160760                       # Number of read requests responded to by this memory
system.mem_ctrls2.num_writes::ruby.dir_cntrl2        19438                       # Number of write requests responded to by this memory
system.mem_ctrls2.num_writes::total             19438                       # Number of write requests responded to by this memory
system.mem_ctrls2.bw_read::ruby.dir_cntrl2    643472635                       # Total read bandwidth from this memory (bytes/s)
system.mem_ctrls2.bw_read::total            643472635                       # Total read bandwidth from this memory (bytes/s)
system.mem_ctrls2.bw_write::ruby.dir_cntrl2     77804311                       # Write bandwidth from this memory (bytes/s)
system.mem_ctrls2.bw_write::total            77804311                       # Write bandwidth from this memory (bytes/s)
system.mem_ctrls2.bw_total::ruby.dir_cntrl2    721276946                       # Total bandwidth to/from this memory (bytes/s)
system.mem_ctrls2.bw_total::total           721276946                       # Total bandwidth to/from this memory (bytes/s)
system.mem_ctrls2.readReqs                     160760                       # Number of read requests accepted
system.mem_ctrls2.avgNetLat                      0.00                       # Average network latency to DRAM controller
system.mem_ctrls2.writeReqs                     19438                       # Number of write requests accepted
system.mem_ctrls2.readBursts                   160760                       # Number of DRAM read bursts, including those serviced by the write queue
system.mem_ctrls2.writeBursts                   19438                       # Number of DRAM write bursts, including those merged in the write queue
system.mem_ctrls2.bytesReadDRAM              10288000                       # Total number of bytes read from DRAM
system.mem_ctrls2.bytesReadWrQ                    640                       # Total number of bytes read from write queue
system.mem_ctrls2.bytesWritten                1242432                       # Total number of bytes written to DRAM
system.mem_ctrls2.bytesReadSys               10288640                       # Total read bytes from the system interface side
system.mem_ctrls2.bytesWrittenSys             1244032                       # Total written bytes from the system interface side
system.mem_ctrls2.servicedByWrQ                    10                       # Number of DRAM read bursts serviced by the write queue
system.mem_ctrls2.mergedWrBursts                    0                       # Number of DRAM write bursts merged with an existing one
system.mem_ctrls2.neitherReadNorWriteReqs            0                       # Number of requests that are neither read nor write
system.mem_ctrls2.perBankRdBursts::0            10385                       # Per bank write bursts
system.mem_ctrls2.perBankRdBursts::1             9935                       # Per bank write bursts
system.mem_ctrls2.perBankRdBursts::2             9814                       # Per bank write bursts
system.mem_ctrls2.perBankRdBursts::3             9587                       # Per bank write bursts
system.mem_ctrls2.perBankRdBursts::4             9369                       # Per bank write bursts
system.mem_ctrls2.perBankRdBursts::5             9179                       # Per bank write bursts
system.mem_ctrls2.perBankRdBursts::6             9352                       # Per bank write bursts
system.mem_ctrls2.perBankRdBursts::7             9761                       # Per bank write bursts
system.mem_ctrls2.perBankRdBursts::8             9498                       # Per bank write bursts
system.mem_ctrls2.perBankRdBursts::9             9920                       # Per bank write bursts
system.mem_ctrls2.perBankRdBursts::10           10810                       # Per bank write bursts
system.mem_ctrls2.perBankRdBursts::11           10687                       # Per bank write bursts
system.mem_ctrls2.perBankRdBursts::12           11029                       # Per bank write bursts
system.mem_ctrls2.perBankRdBursts::13           11104                       # Per bank write bursts
system.mem_ctrls2.perBankRdBursts::14           10367                       # Per bank write bursts
system.mem_ctrls2.perBankRdBursts::15            9953                       # Per bank write bursts
system.mem_ctrls2.perBankWrBursts::0             1352                       # Per bank write bursts
system.mem_ctrls2.perBankWrBursts::1             1138                       # Per bank write bursts
system.mem_ctrls2.perBankWrBursts::2             1174                       # Per bank write bursts
system.mem_ctrls2.perBankWrBursts::3             1172                       # Per bank write bursts
system.mem_ctrls2.perBankWrBursts::4             1057                       # Per bank write bursts
system.mem_ctrls2.perBankWrBursts::5              912                       # Per bank write bursts
system.mem_ctrls2.perBankWrBursts::6              996                       # Per bank write bursts
system.mem_ctrls2.perBankWrBursts::7             1097                       # Per bank write bursts
system.mem_ctrls2.perBankWrBursts::8             1020                       # Per bank write bursts
system.mem_ctrls2.perBankWrBursts::9             1126                       # Per bank write bursts
system.mem_ctrls2.perBankWrBursts::10            1415                       # Per bank write bursts
system.mem_ctrls2.perBankWrBursts::11            1429                       # Per bank write bursts
system.mem_ctrls2.perBankWrBursts::12            1532                       # Per bank write bursts
system.mem_ctrls2.perBankWrBursts::13            1516                       # Per bank write bursts
system.mem_ctrls2.perBankWrBursts::14            1292                       # Per bank write bursts
system.mem_ctrls2.perBankWrBursts::15            1185                       # Per bank write bursts
system.mem_ctrls2.numRdRetry                        0                       # Number of times read queue was full causing retry
system.mem_ctrls2.numWrRetry                        0                       # Number of times write queue was full causing retry
system.mem_ctrls2.totGap                  15988299500                       # Total gap between requests
system.mem_ctrls2.readPktSize::0                    0                       # Read request sizes (log2)
system.mem_ctrls2.readPktSize::1                    0                       # Read request sizes (log2)
system.mem_ctrls2.readPktSize::2                    0                       # Read request sizes (log2)
system.mem_ctrls2.readPktSize::3                    0                       # Read request sizes (log2)
system.mem_ctrls2.readPktSize::4                    0                       # Read request sizes (log2)
system.mem_ctrls2.readPktSize::5                    0                       # Read request sizes (log2)
system.mem_ctrls2.readPktSize::6               160760                       # Read request sizes (log2)
system.mem_ctrls2.writePktSize::0                   0                       # Write request sizes (log2)
system.mem_ctrls2.writePktSize::1                   0                       # Write request sizes (log2)
system.mem_ctrls2.writePktSize::2                   0                       # Write request sizes (log2)
system.mem_ctrls2.writePktSize::3                   0                       # Write request sizes (log2)
system.mem_ctrls2.writePktSize::4                   0                       # Write request sizes (log2)
system.mem_ctrls2.writePktSize::5                   0                       # Write request sizes (log2)
system.mem_ctrls2.writePktSize::6               19438                       # Write request sizes (log2)
system.mem_ctrls2.rdQLenPdf::0                  80533                       # What read queue length does an incoming req see
system.mem_ctrls2.rdQLenPdf::1                  42004                       # What read queue length does an incoming req see
system.mem_ctrls2.rdQLenPdf::2                  20797                       # What read queue length does an incoming req see
system.mem_ctrls2.rdQLenPdf::3                   9993                       # What read queue length does an incoming req see
system.mem_ctrls2.rdQLenPdf::4                   4524                       # What read queue length does an incoming req see
system.mem_ctrls2.rdQLenPdf::5                   1838                       # What read queue length does an incoming req see
system.mem_ctrls2.rdQLenPdf::6                    723                       # What read queue length does an incoming req see
system.mem_ctrls2.rdQLenPdf::7                    252                       # What read queue length does an incoming req see
system.mem_ctrls2.rdQLenPdf::8                     63                       # What read queue length does an incoming req see
system.mem_ctrls2.rdQLenPdf::9                     21                       # What read queue length does an incoming req see
system.mem_ctrls2.rdQLenPdf::10                     2                       # What read queue length does an incoming req see
system.mem_ctrls2.rdQLenPdf::11                     0                       # What read queue length does an incoming req see
system.mem_ctrls2.rdQLenPdf::12                     0                       # What read queue length does an incoming req see
system.mem_ctrls2.rdQLenPdf::13                     0                       # What read queue length does an incoming req see
system.mem_ctrls2.rdQLenPdf::14                     0                       # What read queue length does an incoming req see
system.mem_ctrls2.rdQLenPdf::15                     0                       # What read queue length does an incoming req see
system.mem_ctrls2.rdQLenPdf::16                     0                       # What read queue length does an incoming req see
system.mem_ctrls2.rdQLenPdf::17                     0                       # What read queue length does an incoming req see
system.mem_ctrls2.rdQLenPdf::18                     0                       # What read queue length does an incoming req see
system.mem_ctrls2.rdQLenPdf::19                     0                       # What read queue length does an incoming req see
system.mem_ctrls2.rdQLenPdf::20                     0                       # What read queue length does an incoming req see
system.mem_ctrls2.rdQLenPdf::21                     0                       # What read queue length does an incoming req see
system.mem_ctrls2.rdQLenPdf::22                     0                       # What read queue length does an incoming req see
system.mem_ctrls2.rdQLenPdf::23                     0                       # What read queue length does an incoming req see
system.mem_ctrls2.rdQLenPdf::24                     0                       # What read queue length does an incoming req see
system.mem_ctrls2.rdQLenPdf::25                     0                       # What read queue length does an incoming req see
system.mem_ctrls2.rdQLenPdf::26                     0                       # What read queue length does an incoming req see
system.mem_ctrls2.rdQLenPdf::27                     0                       # What read queue length does an incoming req see
system.mem_ctrls2.rdQLenPdf::28                     0                       # What read queue length does an incoming req see
system.mem_ctrls2.rdQLenPdf::29                     0                       # What read queue length does an incoming req see
system.mem_ctrls2.rdQLenPdf::30                     0                       # What read queue length does an incoming req see
system.mem_ctrls2.rdQLenPdf::31                     0                       # What read queue length does an incoming req see
system.mem_ctrls2.wrQLenPdf::0                      1                       # What write queue length does an incoming req see
system.mem_ctrls2.wrQLenPdf::1                      1                       # What write queue length does an incoming req see
system.mem_ctrls2.wrQLenPdf::2                      1                       # What write queue length does an incoming req see
system.mem_ctrls2.wrQLenPdf::3                      1                       # What write queue length does an incoming req see
system.mem_ctrls2.wrQLenPdf::4                      1                       # What write queue length does an incoming req see
system.mem_ctrls2.wrQLenPdf::5                      1                       # What write queue length does an incoming req see
system.mem_ctrls2.wrQLenPdf::6                      1                       # What write queue length does an incoming req see
system.mem_ctrls2.wrQLenPdf::7                      1                       # What write queue length does an incoming req see
system.mem_ctrls2.wrQLenPdf::8                      1                       # What write queue length does an incoming req see
system.mem_ctrls2.wrQLenPdf::9                      1                       # What write queue length does an incoming req see
system.mem_ctrls2.wrQLenPdf::10                     1                       # What write queue length does an incoming req see
system.mem_ctrls2.wrQLenPdf::11                     1                       # What write queue length does an incoming req see
system.mem_ctrls2.wrQLenPdf::12                     1                       # What write queue length does an incoming req see
system.mem_ctrls2.wrQLenPdf::13                     1                       # What write queue length does an incoming req see
system.mem_ctrls2.wrQLenPdf::14                     1                       # What write queue length does an incoming req see
system.mem_ctrls2.wrQLenPdf::15                   280                       # What write queue length does an incoming req see
system.mem_ctrls2.wrQLenPdf::16                   328                       # What write queue length does an incoming req see
system.mem_ctrls2.wrQLenPdf::17                   804                       # What write queue length does an incoming req see
system.mem_ctrls2.wrQLenPdf::18                  1114                       # What write queue length does an incoming req see
system.mem_ctrls2.wrQLenPdf::19                  1219                       # What write queue length does an incoming req see
system.mem_ctrls2.wrQLenPdf::20                  1216                       # What write queue length does an incoming req see
system.mem_ctrls2.wrQLenPdf::21                  1212                       # What write queue length does an incoming req see
system.mem_ctrls2.wrQLenPdf::22                  1219                       # What write queue length does an incoming req see
[...]
system.ruby.L2Cache_Controller.M.L1_GETX |        1286      5.94%      5.94% |        1346      6.21%     12.15% |        1365      6.30%     18.45% |        1332      6.15%     24.60% |        1308      6.04%     30.64% |        1233      5.69%     36.33% |        1190      5.49%     41.83% |        1339      6.18%     48.01% |        1236      5.71%     53.71% |        1289      5.95%     59.66% |        1271      5.87%     65.53% |        1249      5.77%     71.30% |        1232      5.69%     76.99% |        1158      5.35%     82.33% |        2499     11.54%     93.87% |        1328      6.13%    100.00%
system.ruby.L2Cache_Controller.M.L1_GETX::total        21661                      
system.ruby.L2Cache_Controller.M.L2_Replacement |        4855      6.31%      6.31% |        4822      6.27%     12.58% |        4826      6.27%     18.86% |        4857      6.31%     25.17% |        4749      6.17%     31.34% |        4763      6.19%     37.54% |        4761      6.19%     43.73% |        4750      6.18%     49.90% |        4868      6.33%     56.23% |        4673      6.08%     62.31% |        4774      6.21%     68.51% |        4794      6.23%     74.75% |        4821      6.27%     81.01% |        4861      6.32%     87.33% |        4911      6.38%     93.72% |        4831      6.28%    100.00%
system.ruby.L2Cache_Controller.M.L2_Replacement::total        76916                      
system.ruby.L2Cache_Controller.M.L2_Replacement_clean |        3153      6.23%      6.23% |        3093      6.11%     12.34% |        3004      5.94%     18.28% |        3148      6.22%     24.50% |        3053      6.03%     30.53% |        3125      6.17%     36.70% |        3148      6.22%     42.92% |        3213      6.35%     49.27% |        3287      6.49%     55.77% |        3102      6.13%     61.90% |        3146      6.22%     68.11% |        3226      6.37%     74.49% |        3277      6.48%     80.96% |        3275      6.47%     87.43% |        3162      6.25%     93.68% |        3198      6.32%    100.00%
system.ruby.L2Cache_Controller.M.L2_Replacement_clean::total        50610                      
system.ruby.L2Cache_Controller.MT.L1_GETS |          70      3.97%      3.97% |          70      3.97%      7.94% |          98      5.56%     13.49% |          98      5.56%     19.05% |          98      5.56%     24.60% |         140      7.94%     32.54% |         140      7.94%     40.48% |         140      7.94%     48.41% |         138      7.82%     56.24% |         138      7.82%     64.06% |         136      7.71%     71.77% |         134      7.60%     79.37% |         112      6.35%     85.71% |         112      6.35%     92.06% |          70      3.97%     96.03% |          70      3.97%    100.00%
system.ruby.L2Cache_Controller.MT.L1_GETS::total         1764                      
system.ruby.L2Cache_Controller.MT.L1_GETX |           0      0.00%      0.00% |           0      0.00%      0.00% |           0      0.00%      0.00% |           0      0.00%      0.00% |           0      0.00%      0.00% |           0      0.00%      0.00% |           0      0.00%      0.00% |           0      0.00%      0.00% |           1     14.29%     14.29% |           1     14.29%     28.57% |           2     28.57%     57.14% |           3     42.86%    100.00% |           0      0.00%    100.00% |           0      0.00%    100.00% |           0      0.00%    100.00% |           0      0.00%    100.00%
system.ruby.L2Cache_Controller.MT.L1_GETX::total            7                      
system.ruby.L2Cache_Controller.MT.L1_PUTX |       49923      6.23%      6.23% |       49956      6.23%     12.46% |       49609      6.19%     18.65% |       50206      6.26%     24.91% |       49496      6.17%     31.08% |       49492      6.17%     37.25% |       49597      6.19%     43.44% |       50059      6.24%     49.68% |       49996      6.24%     55.92% |       49546      6.18%     62.10% |       49855      6.22%     68.32% |       50762      6.33%     74.65% |       50412      6.29%     80.94% |       50511      6.30%     87.24% |       52834      6.59%     93.83% |       49483      6.17%    100.00%
system.ruby.L2Cache_Controller.MT.L1_PUTX::total       801737                      
system.ruby.L2Cache_Controller.MT.L2_Replacement |           9      8.82%      8.82% |           7      6.86%     15.69% |          10      9.80%     25.49% |           9      8.82%     34.31% |           8      7.84%     42.16% |           6      5.88%     48.04% |           7      6.86%     54.90% |           6      5.88%     60.78% |           8      7.84%     68.63% |           5      4.90%     73.53% |           5      4.90%     78.43% |           6      5.88%     84.31% |           6      5.88%     90.20% |           3      2.94%     93.14% |           5      4.90%     98.04% |           2      1.96%    100.00%
system.ruby.L2Cache_Controller.MT.L2_Replacement::total          102                      
system.ruby.L2Cache_Controller.MT.L2_Replacement_clean |          31      5.71%      5.71% |          35      6.45%     12.15% |          26      4.79%     16.94% |          35      6.45%     23.39% |          36      6.63%     30.02% |          34      6.26%     36.28% |          37      6.81%     43.09% |          30      5.52%     48.62% |          28      5.16%     53.78% |          38      7.00%     60.77% |          36      6.63%     67.40% |          34      6.26%     73.66% |          32      5.89%     79.56% |          38      7.00%     86.56% |          33      6.08%     92.63% |          40      7.37%    100.00%
system.ruby.L2Cache_Controller.MT.L2_Replacement_clean::total          543                      
system.ruby.L2Cache_Controller.M_I.L1_GET_INSTR |           0      0.00%      0.00% |           0      0.00%      0.00% |           1    100.00%    100.00% |           0      0.00%    100.00% |           0      0.00%    100.00% |           0      0.00%    100.00% |           0      0.00%    100.00% |           0      0.00%    100.00% |           0      0.00%    100.00% |           0      0.00%    100.00% |           0      0.00%    100.00% |           0      0.00%    100.00% |           0      0.00%    100.00% |           0      0.00%    100.00% |           0      0.00%    100.00% |           0      0.00%    100.00%
system.ruby.L2Cache_Controller.M_I.L1_GET_INSTR::total            1                      
system.ruby.L2Cache_Controller.M_I.L1_GETS |           0      0.00%      0.00% |           0      0.00%      0.00% |           0      0.00%      0.00% |           0      0.00%      0.00% |           1    100.00%    100.00% |           0      0.00%    100.00% |           0      0.00%    100.00% |           0      0.00%    100.00% |           0      0.00%    100.00% |           0      0.00%    100.00% |           0      0.00%    100.00% |           0      0.00%    100.00% |           0      0.00%    100.00% |           0      0.00%    100.00% |           0      0.00%    100.00% |           0      0.00%    100.00%
system.ruby.L2Cache_Controller.M_I.L1_GETS::total            1                      
system.ruby.L2Cache_Controller.M_I.Mem_Ack |        8650      6.26%      6.26% |        8589      6.21%     12.47% |        8536      6.18%     18.65% |        8643      6.25%     24.90% |        8477      6.13%     31.04% |        8602      6.22%     37.26% |        8605      6.23%     43.49% |        8603      6.22%     49.71% |        8864      6.41%     56.12% |        8338      6.03%     62.16% |        8551      6.19%     68.34% |        8664      6.27%     74.61% |        8746      6.33%     80.94% |        8806      6.37%     87.31% |        8831      6.39%     93.70% |        8703      6.30%    100.00%
system.ruby.L2Cache_Controller.M_I.Mem_Ack::total       138208                      
system.ruby.L2Cache_Controller.MT_I.WB_Data |           1      2.63%      2.63% |           4     10.53%     13.16% |           5     13.16%     26.32% |           2      5.26%     31.58% |           3      7.89%     39.47% |           3      7.89%     47.37% |           2      5.26%     52.63% |           2      5.26%     57.89% |           4     10.53%     68.42% |           4     10.53%     78.95% |           1      2.63%     81.58% |           3      7.89%     89.47% |           2      5.26%     94.74% |           0      0.00%     94.74% |           1      2.63%     97.37% |           1      2.63%    100.00%
system.ruby.L2Cache_Controller.MT_I.WB_Data::total           38                      
system.ruby.L2Cache_Controller.MT_I.Ack_all |           8     12.50%     12.50% |           3      4.69%     17.19% |           5      7.81%     25.00% |           7     10.94%     35.94% |           5      7.81%     43.75% |           3      4.69%     48.44% |           5      7.81%     56.25% |           4      6.25%     62.50% |           4      6.25%     68.75% |           1      1.56%     70.31% |           4      6.25%     76.56% |           3      4.69%     81.25% |           4      6.25%     87.50% |           3      4.69%     92.19% |           4      6.25%     98.44% |           1      1.56%    100.00%
system.ruby.L2Cache_Controller.MT_I.Ack_all::total           64                      
system.ruby.L2Cache_Controller.MCT_I.WB_Data |          30      5.85%      5.85% |          32      6.24%     12.09% |          26      5.07%     17.15% |          34      6.63%     23.78% |          33      6.43%     30.21% |          32      6.24%     36.45% |          36      7.02%     43.47% |          28      5.46%     48.93% |          27      5.26%     54.19% |          37      7.21%     61.40% |          31      6.04%     67.45% |          32      6.24%     73.68% |          28      5.46%     79.14% |          35      6.82%     85.96% |          32      6.24%     92.20% |          40      7.80%    100.00%
system.ruby.L2Cache_Controller.MCT_I.WB_Data::total          513                      
system.ruby.L2Cache_Controller.MCT_I.Ack_all |           1      3.33%      3.33% |           3     10.00%     13.33% |           0      0.00%     13.33% |           1      3.33%     16.67% |           3     10.00%     26.67% |           2      6.67%     33.33% |           1      3.33%     36.67% |           2      6.67%     43.33% |           1      3.33%     46.67% |           1      3.33%     50.00% |           5     16.67%     66.67% |           2      6.67%     73.33% |           4     13.33%     86.67% |           3     10.00%     96.67% |           1      3.33%    100.00% |           0      0.00%    100.00%
system.ruby.L2Cache_Controller.MCT_I.Ack_all::total           30                      
system.ruby.L2Cache_Controller.I_I.L1_GET_INSTR |           0      0.00%      0.00% |           0      0.00%      0.00% |           1    100.00%    100.00% |           0      0.00%    100.00% |           0      0.00%    100.00% |           0      0.00%    100.00% |           0      0.00%    100.00% |           0      0.00%    100.00% |           0      0.00%    100.00% |           0      0.00%    100.00% |           0      0.00%    100.00% |           0      0.00%    100.00% |           0      0.00%    100.00% |           0      0.00%    100.00% |           0      0.00%    100.00% |           0      0.00%    100.00%
system.ruby.L2Cache_Controller.I_I.L1_GET_INSTR::total            1                      
system.ruby.L2Cache_Controller.I_I.Ack_all |         599      6.01%      6.01% |         627      6.29%     12.30% |         666      6.68%     18.98% |         590      5.92%     24.90% |         623      6.25%     31.15% |         670      6.72%     37.87% |         648      6.50%     44.38% |         598      6.00%     50.38% |         669      6.71%     57.09% |         515      5.17%     62.26% |         585      5.87%     68.12% |         600      6.02%     74.14% |         603      6.05%     80.19% |         628      6.30%     86.50% |         719      7.21%     93.71% |         627      6.29%    100.00%
system.ruby.L2Cache_Controller.I_I.Ack_all::total         9967                      
system.ruby.L2Cache_Controller.S_I.Ack   |           3      4.29%      4.29% |           5      7.14%     11.43% |           4      5.71%     17.14% |           4      5.71%     22.86% |           8     11.43%     34.29% |           4      5.71%     40.00% |           4      5.71%     45.71% |           6      8.57%     54.29% |           4      5.71%     60.00% |           5      7.14%     67.14% |           5      7.14%     74.29% |           4      5.71%     80.00% |           7     10.00%     90.00% |           1      1.43%     91.43% |           1      1.43%     92.86% |           5      7.14%    100.00%
system.ruby.L2Cache_Controller.S_I.Ack::total           70                      
system.ruby.L2Cache_Controller.S_I.Ack_all |           3      4.29%      4.29% |           5      7.14%     11.43% |           4      5.71%     17.14% |           4      5.71%     22.86% |           8     11.43%     34.29% |           4      5.71%     40.00% |           4      5.71%     45.71% |           6      8.57%     54.29% |           4      5.71%     60.00% |           5      7.14%     67.14% |           5      7.14%     74.29% |           4      5.71%     80.00% |           7     10.00%     90.00% |           1      1.43%     91.43% |           1      1.43%     92.86% |           5      7.14%    100.00%
system.ruby.L2Cache_Controller.S_I.Ack_all::total           70                      
system.ruby.L2Cache_Controller.ISS.Mem_Data |       29358      6.26%      6.26% |       29131      6.21%     12.48% |       28922      6.17%     18.65% |       29310      6.25%     24.90% |       29031      6.19%     31.09% |       29224      6.23%     37.33% |       29294      6.25%     43.58% |       29316      6.25%     49.83% |       29500      6.29%     56.13% |       29200      6.23%     62.36% |       29295      6.25%     68.61% |       29392      6.27%     74.88% |       29562      6.31%     81.18% |       29511      6.30%     87.48% |       29352      6.26%     93.74% |       29342      6.26%    100.00%
system.ruby.L2Cache_Controller.ISS.Mem_Data::total       468740                      
system.ruby.L2Cache_Controller.IS.Mem_Data |        1352      6.37%      6.37% |        1364      6.43%     12.80% |        1491      7.03%     19.83% |        1297      6.11%     25.94% |        1355      6.39%     32.32% |        1338      6.31%     38.63% |        1283      6.05%     44.67% |        1292      6.09%     50.76% |        1368      6.45%     57.21% |        1162      5.48%     62.69% |        1250      5.89%     68.58% |        1268      5.98%     74.55% |        1235      5.82%     80.37% |        1299      6.12%     86.49% |        1519      7.16%     93.65% |        1347      6.35%    100.00%
system.ruby.L2Cache_Controller.IS.Mem_Data::total        21220                      
system.ruby.L2Cache_Controller.IM.Mem_Data |        9522      6.22%      6.22% |        9607      6.27%     12.49% |        9648      6.30%     18.80% |        9608      6.28%     25.07% |        9596      6.27%     31.34% |        9586      6.26%     37.60% |        9596      6.27%     43.87% |        9600      6.27%     50.14% |        9545      6.23%     56.37% |        9522      6.22%     62.59% |        9555      6.24%     68.83% |        9529      6.22%     75.06% |        9521      6.22%     81.27% |        9560      6.24%     87.52% |        9555      6.24%     93.76% |        9554      6.24%    100.00%
system.ruby.L2Cache_Controller.IM.Mem_Data::total       153104                      
system.ruby.L2Cache_Controller.SS_MB.Exclusive_Unblock |          42      3.92%      3.92% |          42      3.92%      7.84% |          70      6.54%     14.38% |          56      5.23%     19.61% |          56      5.23%     24.84% |          84      7.84%     32.68% |          84      7.84%     40.52% |          84      7.84%     48.37% |          83      7.75%     56.12% |          83      7.75%     63.87% |          82      7.66%     71.52% |          81      7.56%     79.08% |          70      6.54%     85.62% |          70      6.54%     92.16% |          42      3.92%     96.08% |          42      3.92%    100.00%
system.ruby.L2Cache_Controller.SS_MB.Exclusive_Unblock::total         1071                      
system.ruby.L2Cache_Controller.MT_MB.Exclusive_Unblock |       50847      6.23%      6.23% |       50880      6.23%     12.46% |       50530      6.19%     18.64% |       51144      6.26%     24.90% |       50433      6.17%     31.08% |       50444      6.18%     37.25% |       50549      6.19%     43.44% |       51008      6.25%     49.69% |       50933      6.24%     55.93% |       50496      6.18%     62.11% |       50808      6.22%     68.33% |       51717      6.33%     74.66% |       51348      6.29%     80.95% |       51447      6.30%     87.25% |       53758      6.58%     93.83% |       50404      6.17%    100.00%
system.ruby.L2Cache_Controller.MT_MB.Exclusive_Unblock::total       816746                      
system.ruby.L2Cache_Controller.MT_IIB.WB_Data |          70      4.01%      4.01% |          70      4.01%      8.01% |          97      5.55%     13.57% |          97      5.55%     19.12% |          97      5.55%     24.67% |         140      8.01%     32.68% |         137      7.84%     40.53% |         136      7.78%     48.31% |         138      7.90%     56.21% |         137      7.84%     64.05% |         134      7.67%     71.72% |         134      7.67%     79.39% |         110      6.30%     85.69% |         112      6.41%     92.10% |          70      4.01%     96.11% |          68      3.89%    100.00%
system.ruby.L2Cache_Controller.MT_IIB.WB_Data::total         1747                      
system.ruby.L2Cache_Controller.MT_IIB.Unblock |           0      0.00%      0.00% |           0      0.00%      0.00% |           1      5.88%      5.88% |           1      5.88%     11.76% |           1      5.88%     17.65% |           0      0.00%     17.65% |           3     17.65%     35.29% |           4     23.53%     58.82% |           0      0.00%     58.82% |           1      5.88%     64.71% |           2     11.76%     76.47% |           0      0.00%     76.47% |           2     11.76%     88.24% |           0      0.00%     88.24% |           0      0.00%     88.24% |           2     11.76%    100.00%
system.ruby.L2Cache_Controller.MT_IIB.Unblock::total           17                      
system.ruby.L2Cache_Controller.MT_IB.WB_Data |           0      0.00%      0.00% |           0      0.00%      0.00% |           1      5.88%      5.88% |           1      5.88%     11.76% |           1      5.88%     17.65% |           0      0.00%     17.65% |           3     17.65%     35.29% |           4     23.53%     58.82% |           0      0.00%     58.82% |           1      5.88%     64.71% |           2     11.76%     76.47% |           0      0.00%     76.47% |           2     11.76%     88.24% |           0      0.00%     88.24% |           0      0.00%     88.24% |           2     11.76%    100.00%
system.ruby.L2Cache_Controller.MT_IB.WB_Data::total           17                      
system.ruby.L2Cache_Controller.MT_SB.Unblock |          70      4.01%      4.01% |          70      4.01%      8.01% |          97      5.55%     13.57% |          97      5.55%     19.12% |          97      5.55%     24.67% |         140      8.01%     32.68% |         137      7.84%     40.53% |         136      7.78%     48.31% |         138      7.90%     56.21% |         137      7.84%     64.05% |         134      7.67%     71.72% |         134      7.67%     79.39% |         110      6.30%     85.69% |         112      6.41%     92.10% |          70      4.01%     96.11% |          68      3.89%    100.00%
system.ruby.L2Cache_Controller.MT_SB.Unblock::total         1747                      

---------- End Simulation Statistics   ----------
