
---------- Begin Simulation Statistics ----------
sim_seconds                                  0.013397                       # Number of seconds simulated
sim_ticks                                 13397315000                       # Number of ticks simulated
final_tick                                13397315000                       # Number of ticks from beginning of simulation (restored from checkpoints and never reset)
sim_freq                                 1000000000000                       # Frequency of simulated ticks
host_inst_rate                                  33609                       # Simulator instruction rate (inst/s)
host_op_rate                                    58700                       # Simulator op (including micro ops) rate (op/s)
host_tick_rate                               10640052                       # Simulator tick rate (ticks/s)
host_mem_usage                                1757672                       # Number of bytes of host memory used
host_seconds                                  1259.14                       # Real time elapsed on the host
sim_insts                                    42317986                       # Number of instructions simulated
sim_ops                                      73912135                       # Number of ops (including micro ops) simulated
system.voltage_domain.voltage                       1                       # Voltage in Volts
system.clk_domain.clock                          1000                       # Clock period in ticks
system.mem_ctrls0.pwrStateResidencyTicks::UNDEFINED  13397315000                       # Cumulative time (in ticks) in various power states
system.mem_ctrls0.bytes_read::ruby.dir_cntrl0      8586688                       # Number of bytes read from this memory
system.mem_ctrls0.bytes_read::total           8586688                       # Number of bytes read from this memory
system.mem_ctrls0.bytes_written::ruby.dir_cntrl0      1297344                       # Number of bytes written to this memory
system.mem_ctrls0.bytes_written::total        1297344                       # Number of bytes written to this memory
system.mem_ctrls0.num_reads::ruby.dir_cntrl0       134167                       # Number of read requests responded to by this memory
system.mem_ctrls0.num_reads::total             134167                       # Number of read requests responded to by this memory
system.mem_ctrls0.num_writes::ruby.dir_cntrl0        20271                       # Number of write requests responded to by this memory
system.mem_ctrls0.num_writes::total             20271                       # Number of write requests responded to by this memory
system.mem_ctrls0.bw_read::ruby.dir_cntrl0    640926036                       # Total read bandwidth from this memory (bytes/s)
system.mem_ctrls0.bw_read::total            640926036                       # Total read bandwidth from this memory (bytes/s)
system.mem_ctrls0.bw_write::ruby.dir_cntrl0     96836120                       # Write bandwidth from this memory (bytes/s)
system.mem_ctrls0.bw_write::total            96836120                       # Write bandwidth from this memory (bytes/s)
system.mem_ctrls0.bw_total::ruby.dir_cntrl0    737762156                       # Total bandwidth to/from this memory (bytes/s)
system.mem_ctrls0.bw_total::total           737762156                       # Total bandwidth to/from this memory (bytes/s)
system.mem_ctrls0.readReqs                     134167                       # Number of read requests accepted
system.mem_ctrls0.avgNetLat                      0.00                       # Average network latency to DRAM controller
system.mem_ctrls0.writeReqs                     20271                       # Number of write requests accepted
system.mem_ctrls0.readBursts                   134167                       # Number of DRAM read bursts, including those serviced by the write queue
system.mem_ctrls0.writeBursts                   20271                       # Number of DRAM write bursts, including those merged in the write queue
system.mem_ctrls0.bytesReadDRAM               8586368                       # Total number of bytes read from DRAM
system.mem_ctrls0.bytesReadWrQ                    320                       # Total number of bytes read from write queue
system.mem_ctrls0.bytesWritten                1296384                       # Total number of bytes written to DRAM
system.mem_ctrls0.bytesReadSys                8586688                       # Total read bytes from the system interface side
system.mem_ctrls0.bytesWrittenSys             1297344                       # Total written bytes from the system interface side
system.mem_ctrls0.servicedByWrQ                     5                       # Number of DRAM read bursts serviced by the write queue
system.mem_ctrls0.mergedWrBursts                    0                       # Number of DRAM write bursts merged with an existing one
system.mem_ctrls0.neitherReadNorWriteReqs            0                       # Number of requests that are neither read nor write
system.mem_ctrls0.perBankRdBursts::0             8426                       # Per bank write bursts
system.mem_ctrls0.perBankRdBursts::1             8089                       # Per bank write bursts
system.mem_ctrls0.perBankRdBursts::2             8042                       # Per bank write bursts
system.mem_ctrls0.perBankRdBursts::3             8118                       # Per bank write bursts
system.mem_ctrls0.perBankRdBursts::4             8322                       # Per bank write bursts
system.mem_ctrls0.perBankRdBursts::5             7800                       # Per bank write bursts
system.mem_ctrls0.perBankRdBursts::6             8082                       # Per bank write bursts
system.mem_ctrls0.perBankRdBursts::7             8135                       # Per bank write bursts
system.mem_ctrls0.perBankRdBursts::8             8202                       # Per bank write bursts
system.mem_ctrls0.perBankRdBursts::9             8499                       # Per bank write bursts
system.mem_ctrls0.perBankRdBursts::10            9020                       # Per bank write bursts
system.mem_ctrls0.perBankRdBursts::11            9085                       # Per bank write bursts
system.mem_ctrls0.perBankRdBursts::12            9015                       # Per bank write bursts
system.mem_ctrls0.perBankRdBursts::13            8495                       # Per bank write bursts
system.mem_ctrls0.perBankRdBursts::14            8468                       # Per bank write bursts
system.mem_ctrls0.perBankRdBursts::15            8364                       # Per bank write bursts
system.mem_ctrls0.perBankWrBursts::0             1314                       # Per bank write bursts
system.mem_ctrls0.perBankWrBursts::1             1109                       # Per bank write bursts
system.mem_ctrls0.perBankWrBursts::2             1392                       # Per bank write bursts
system.mem_ctrls0.perBankWrBursts::3             1345                       # Per bank write bursts
system.mem_ctrls0.perBankWrBursts::4             1429                       # Per bank write bursts
system.mem_ctrls0.perBankWrBursts::5             1139                       # Per bank write bursts
system.mem_ctrls0.perBankWrBursts::6             1182                       # Per bank write bursts
system.mem_ctrls0.perBankWrBursts::7             1137                       # Per bank write bursts
system.mem_ctrls0.perBankWrBursts::8             1199                       # Per bank write bursts
system.mem_ctrls0.perBankWrBursts::9             1221                       # Per bank write bursts
system.mem_ctrls0.perBankWrBursts::10            1274                       # Per bank write bursts
system.mem_ctrls0.perBankWrBursts::11            1228                       # Per bank write bursts
system.mem_ctrls0.perBankWrBursts::12            1510                       # Per bank write bursts
system.mem_ctrls0.perBankWrBursts::13            1193                       # Per bank write bursts
system.mem_ctrls0.perBankWrBursts::14            1268                       # Per bank write bursts
system.mem_ctrls0.perBankWrBursts::15            1316                       # Per bank write bursts
system.mem_ctrls0.numRdRetry                        0                       # Number of times read queue was full causing retry
system.mem_ctrls0.numWrRetry                        0                       # Number of times write queue was full causing retry
system.mem_ctrls0.totGap                  13396350000                       # Total gap between requests
system.mem_ctrls0.readPktSize::0                    0                       # Read request sizes (log2)
system.mem_ctrls0.readPktSize::1                    0                       # Read request sizes (log2)
system.mem_ctrls0.readPktSize::2                    0                       # Read request sizes (log2)
system.mem_ctrls0.readPktSize::3                    0                       # Read request sizes (log2)
system.mem_ctrls0.readPktSize::4                    0                       # Read request sizes (log2)
system.mem_ctrls0.readPktSize::5                    0                       # Read request sizes (log2)
system.mem_ctrls0.readPktSize::6               134167                       # Read request sizes (log2)
system.mem_ctrls0.writePktSize::0                   0                       # Write request sizes (log2)
system.mem_ctrls0.writePktSize::1                   0                       # Write request sizes (log2)
system.mem_ctrls0.writePktSize::2                   0                       # Write request sizes (log2)
system.mem_ctrls0.writePktSize::3                   0                       # Write request sizes (log2)
system.mem_ctrls0.writePktSize::4                   0                       # Write request sizes (log2)
system.mem_ctrls0.writePktSize::5                   0                       # Write request sizes (log2)
system.mem_ctrls0.writePktSize::6               20271                       # Write request sizes (log2)
system.mem_ctrls0.rdQLenPdf::0                  66756                       # What read queue length does an incoming req see
system.mem_ctrls0.rdQLenPdf::1                  34858                       # What read queue length does an incoming req see
system.mem_ctrls0.rdQLenPdf::2                  17658                       # What read queue length does an incoming req see
system.mem_ctrls0.rdQLenPdf::3                   8537                       # What read queue length does an incoming req see
system.mem_ctrls0.rdQLenPdf::4                   4011                       # What read queue length does an incoming req see
system.mem_ctrls0.rdQLenPdf::5                   1550                       # What read queue length does an incoming req see
system.mem_ctrls0.rdQLenPdf::6                    532                       # What read queue length does an incoming req see
system.mem_ctrls0.rdQLenPdf::7                    187                       # What read queue length does an incoming req see
system.mem_ctrls0.rdQLenPdf::8                     57                       # What read queue length does an incoming req see
system.mem_ctrls0.rdQLenPdf::9                     11                       # What read queue length does an incoming req see
system.mem_ctrls0.rdQLenPdf::10                     5                       # What read queue length does an incoming req see
system.mem_ctrls0.rdQLenPdf::11                     0                       # What read queue length does an incoming req see
system.mem_ctrls0.rdQLenPdf::12                     0                       # What read queue length does an incoming req see
system.mem_ctrls0.rdQLenPdf::13                     0                       # What read queue length does an incoming req see
system.mem_ctrls0.rdQLenPdf::14                     0                       # What read queue length does an incoming req see
system.mem_ctrls0.rdQLenPdf::15                     0                       # What read queue length does an incoming req see
system.mem_ctrls0.rdQLenPdf::16                     0                       # What read queue length does an incoming req see
system.mem_ctrls0.rdQLenPdf::17                     0                       # What read queue length does an incoming req see
system.mem_ctrls0.rdQLenPdf::18                     0                       # What read queue length does an incoming req see
system.mem_ctrls0.rdQLenPdf::19                     0                       # What read queue length does an incoming req see
system.mem_ctrls0.rdQLenPdf::20                     0                       # What read queue length does an incoming req see
system.mem_ctrls0.rdQLenPdf::21                     0                       # What read queue length does an incoming req see
system.mem_ctrls0.rdQLenPdf::22                     0                       # What read queue length does an incoming req see
system.mem_ctrls0.rdQLenPdf::23                     0                       # What read queue length does an incoming req see
system.mem_ctrls0.rdQLenPdf::24                     0                       # What read queue length does an incoming req see
system.mem_ctrls0.rdQLenPdf::25                     0                       # What read queue length does an incoming req see
system.mem_ctrls0.rdQLenPdf::26                     0                       # What read queue length does an incoming req see
system.mem_ctrls0.rdQLenPdf::27                     0                       # What read queue length does an incoming req see
system.mem_ctrls0.rdQLenPdf::28                     0                       # What read queue length does an incoming req see
system.mem_ctrls0.rdQLenPdf::29                     0                       # What read queue length does an incoming req see
system.mem_ctrls0.rdQLenPdf::30                     0                       # What read queue length does an incoming req see
system.mem_ctrls0.rdQLenPdf::31                     0                       # What read queue length does an incoming req see
system.mem_ctrls0.wrQLenPdf::0                      1                       # What write queue length does an incoming req see
system.mem_ctrls0.wrQLenPdf::1                      1                       # What write queue length does an incoming req see
system.mem_ctrls0.wrQLenPdf::2                      1                       # What write queue length does an incoming req see
system.mem_ctrls0.wrQLenPdf::3                      1                       # What write queue length does an incoming req see
system.mem_ctrls0.wrQLenPdf::4                      1                       # What write queue length does an incoming req see
system.mem_ctrls0.wrQLenPdf::5                      1                       # What write queue length does an incoming req see
system.mem_ctrls0.wrQLenPdf::6                      1                       # What write queue length does an incoming req see
system.mem_ctrls0.wrQLenPdf::7                      1                       # What write queue length does an incoming req see
system.mem_ctrls0.wrQLenPdf::8                      1                       # What write queue length does an incoming req see
system.mem_ctrls0.wrQLenPdf::9                      1                       # What write queue length does an incoming req see
system.mem_ctrls0.wrQLenPdf::10                     1                       # What write queue length does an incoming req see
system.mem_ctrls0.wrQLenPdf::11                     1                       # What write queue length does an incoming req see
system.mem_ctrls0.wrQLenPdf::12                     1                       # What write queue length does an incoming req see
system.mem_ctrls0.wrQLenPdf::13                     1                       # What write queue length does an incoming req see
system.mem_ctrls0.wrQLenPdf::14                     1                       # What write queue length does an incoming req see
system.mem_ctrls0.wrQLenPdf::15                   513                       # What write queue length does an incoming req see
system.mem_ctrls0.wrQLenPdf::16                   571                       # What write queue length does an incoming req see
system.mem_ctrls0.wrQLenPdf::17                   927                       # What write queue length does an incoming req see
system.mem_ctrls0.wrQLenPdf::18                  1159                       # What write queue length does an incoming req see
system.mem_ctrls0.wrQLenPdf::19                  1217                       # What write queue length does an incoming req see
system.mem_ctrls0.wrQLenPdf::20                  1222                       # What write queue length does an incoming req see
system.mem_ctrls0.wrQLenPdf::21                  1216                       # What write queue length does an incoming req see
system.mem_ctrls0.wrQLenPdf::22                  1227                       # What write queue length does an incoming req see
system.mem_ctrls0.wrQLenPdf::23                  1216                       # What write queue length does an incoming req see
system.mem_ctrls0.wrQLenPdf::24                  1229                       # What write queue length does an incoming req see
system.mem_ctrls0.wrQLenPdf::25                  1226                       # What write queue length does an incoming req see
system.mem_ctrls0.wrQLenPdf::26                  1234                       # What write queue length does an incoming req see
system.mem_ctrls0.wrQLenPdf::27                  1225                       # What write queue length does an incoming req see
system.mem_ctrls0.wrQLenPdf::28                  1226                       # What write queue length does an incoming req see
system.mem_ctrls0.wrQLenPdf::29                  1226                       # What write queue length does an incoming req see
system.mem_ctrls0.wrQLenPdf::30                  1214                       # What write queue length does an incoming req see
system.mem_ctrls0.wrQLenPdf::31                  1203                       # What write queue length does an incoming req see
system.mem_ctrls0.wrQLenPdf::32                  1194                       # What write queue length does an incoming req see
system.mem_ctrls0.wrQLenPdf::33                    10                       # What write queue length does an incoming req see
system.mem_ctrls0.wrQLenPdf::34                     1                       # What write queue length does an incoming req see
system.mem_ctrls0.wrQLenPdf::35                     0                       # What write queue length does an incoming req see
system.mem_ctrls0.wrQLenPdf::36                     0                       # What write queue length does an incoming req see
system.mem_ctrls0.wrQLenPdf::37                     0                       # What write queue length does an incoming req see
system.mem_ctrls0.wrQLenPdf::38                     0                       # What write queue length does an incoming req see
system.mem_ctrls0.wrQLenPdf::39                     0                       # What write queue length does an incoming req see
system.mem_ctrls0.wrQLenPdf::40                     0                       # What write queue length does an incoming req see
system.mem_ctrls0.wrQLenPdf::41                     0                       # What write queue length does an incoming req see
system.mem_ctrls0.wrQLenPdf::42                     0                       # What write queue length does an incoming req see
system.mem_ctrls0.wrQLenPdf::43                     0                       # What write queue length does an incoming req see
system.mem_ctrls0.wrQLenPdf::44                     0                       # What write queue length does an incoming req see
system.mem_ctrls0.wrQLenPdf::45                     0                       # What write queue length does an incoming req see
system.mem_ctrls0.wrQLenPdf::46                     0                       # What write queue length does an incoming req see
system.mem_ctrls0.wrQLenPdf::47                     0                       # What write queue length does an incoming req see
system.mem_ctrls0.wrQLenPdf::48                     0                       # What write queue length does an incoming req see
system.mem_ctrls0.wrQLenPdf::49                     0                       # What write queue length does an incoming req see
system.mem_ctrls0.wrQLenPdf::50                     0                       # What write queue length does an incoming req see
system.mem_ctrls0.wrQLenPdf::51                     0                       # What write queue length does an incoming req see
system.mem_ctrls0.wrQLenPdf::52                     0                       # What write queue length does an incoming req see
system.mem_ctrls0.wrQLenPdf::53                     0                       # What write queue length does an incoming req see
system.mem_ctrls0.wrQLenPdf::54                     0                       # What write queue length does an incoming req see
system.mem_ctrls0.wrQLenPdf::55                     0                       # What write queue length does an incoming req see
system.mem_ctrls0.wrQLenPdf::56                     0                       # What write queue length does an incoming req see
system.mem_ctrls0.wrQLenPdf::57                     0                       # What write queue length does an incoming req see
system.mem_ctrls0.wrQLenPdf::58                     0                       # What write queue length does an incoming req see
system.mem_ctrls0.wrQLenPdf::59                     0                       # What write queue length does an incoming req see
system.mem_ctrls0.wrQLenPdf::60                     0                       # What write queue length does an incoming req see
system.mem_ctrls0.wrQLenPdf::61                     0                       # What write queue length does an incoming req see
system.mem_ctrls0.wrQLenPdf::62                     0                       # What write queue length does an incoming req see
system.mem_ctrls0.wrQLenPdf::63                     0                       # What write queue length does an incoming req see
system.mem_ctrls0.bytesPerActivate::samples        84649                       # Bytes accessed per row activation
system.mem_ctrls0.bytesPerActivate::mean   116.749022                       # Bytes accessed per row activation
system.mem_ctrls0.bytesPerActivate::gmean    89.145858                       # Bytes accessed per row activation
system.mem_ctrls0.bytesPerActivate::stdev   132.047705                       # Bytes accessed per row activation
system.mem_ctrls0.bytesPerActivate::0-127        59965     70.84%     70.84% # Bytes accessed per row activation
system.mem_ctrls0.bytesPerActivate::128-255        16319     19.28%     90.12% # Bytes accessed per row activation
system.mem_ctrls0.bytesPerActivate::256-383         3425      4.05%     94.16% # Bytes accessed per row activation
system.mem_ctrls0.bytesPerActivate::384-511         1871      2.21%     96.37% # Bytes accessed per row activation
system.mem_ctrls0.bytesPerActivate::512-639         1142      1.35%     97.72% # Bytes accessed per row activation
system.mem_ctrls0.bytesPerActivate::640-767         1262      1.49%     99.21% # Bytes accessed per row activation
system.mem_ctrls0.bytesPerActivate::768-895          127      0.15%     99.36% # Bytes accessed per row activation
system.mem_ctrls0.bytesPerActivate::896-1023          100      0.12%     99.48% # Bytes accessed per row activation
system.mem_ctrls0.bytesPerActivate::1024-1151          438      0.52%    100.00% # Bytes accessed per row activation
system.mem_ctrls0.bytesPerActivate::total        84649                       # Bytes accessed per row activation
system.mem_ctrls0.rdPerTurnAround::samples         1192                       # Reads before turning the bus around for writes
system.mem_ctrls0.rdPerTurnAround::mean    112.552013                       # Reads before turning the bus around for writes
system.mem_ctrls0.rdPerTurnAround::gmean    32.515353                       # Reads before turning the bus around for writes
system.mem_ctrls0.rdPerTurnAround::stdev  2024.089902                       # Reads before turning the bus around for writes
system.mem_ctrls0.rdPerTurnAround::0-4095         1191     99.92%     99.92% # Reads before turning the bus around for writes
system.mem_ctrls0.rdPerTurnAround::69632-73727            1      0.08%    100.00% # Reads before turning the bus around for writes
system.mem_ctrls0.rdPerTurnAround::total         1192                       # Reads before turning the bus around for writes
system.mem_ctrls0.wrPerTurnAround::samples         1192                       # Writes before turning the bus around for reads
system.mem_ctrls0.wrPerTurnAround::mean     16.993289                       # Writes before turning the bus around for reads
system.mem_ctrls0.wrPerTurnAround::gmean    16.959690                       # Writes before turning the bus around for reads
system.mem_ctrls0.wrPerTurnAround::stdev     1.076404                       # Writes before turning the bus around for reads
system.mem_ctrls0.wrPerTurnAround::16             611     51.26%     51.26% # Writes before turning the bus around for reads
system.mem_ctrls0.wrPerTurnAround::17              55      4.61%     55.87% # Writes before turning the bus around for reads
system.mem_ctrls0.wrPerTurnAround::18             455     38.17%     94.04% # Writes before turning the bus around for reads
system.mem_ctrls0.wrPerTurnAround::19              65      5.45%     99.50% # Writes before turning the bus around for reads
system.mem_ctrls0.wrPerTurnAround::20               6      0.50%    100.00% # Writes before turning the bus around for reads
system.mem_ctrls0.wrPerTurnAround::total         1192                       # Writes before turning the bus around for reads
system.mem_ctrls0.totQLat                  3840846500                       # Total ticks spent queuing
system.mem_ctrls0.totMemAccLat             6356384000                       # Total ticks spent from burst creation until serviced by the DRAM
system.mem_ctrls0.totBusLat                 670810000                       # Total ticks spent in databus transfers
system.mem_ctrls0.avgQLat                    28628.42                       # Average queueing delay per DRAM burst
system.mem_ctrls0.avgBusLat                   5000.00                       # Average bus latency per DRAM burst
system.mem_ctrls0.avgMemAccLat               47378.42                       # Average memory access latency per DRAM burst
system.mem_ctrls0.avgRdBW                      640.90                       # Average DRAM read bandwidth in MiByte/s
system.mem_ctrls0.avgWrBW                       96.76                       # Average achieved write bandwidth in MiByte/s
system.mem_ctrls0.avgRdBWSys                   640.93                       # Average system read bandwidth in MiByte/s
system.mem_ctrls0.avgWrBWSys                    96.84                       # Average system write bandwidth in MiByte/s
system.mem_ctrls0.peakBW                     12800.00                       # Theoretical peak bandwidth in MiByte/s
system.mem_ctrls0.busUtil                        5.76                       # Data bus utilization in percentage
system.mem_ctrls0.busUtilRead                    5.01                       # Data bus utilization in percentage for reads
system.mem_ctrls0.busUtilWrite                   0.76                       # Data bus utilization in percentage for writes
system.mem_ctrls0.avgRdQLen                      1.53                       # Average read queue length when enqueuing
system.mem_ctrls0.avgWrQLen                     10.62                       # Average write queue length when enqueuing
system.mem_ctrls0.readRowHits                   63556                       # Number of row buffer hits during reads
system.mem_ctrls0.writeRowHits                   6212                       # Number of row buffer hits during writes
system.mem_ctrls0.readRowHitRate                47.37                       # Row buffer hit rate for reads
system.mem_ctrls0.writeRowHitRate               30.64                       # Row buffer hit rate for writes
system.mem_ctrls0.avgGap                     86742.58                       # Average gap between requests
system.mem_ctrls0.pageHitRate                   45.18                       # Row buffer hit rate, read and write combined
system.mem_ctrls0_0.actEnergy               288791580                       # Energy for activate commands per rank (pJ)
system.mem_ctrls0_0.preEnergy               153496365                       # Energy for precharge commands per rank (pJ)
system.mem_ctrls0_0.readEnergy              464199960                       # Energy for read commands per rank (pJ)
system.mem_ctrls0_0.writeEnergy              52445340                       # Energy for write commands per rank (pJ)
system.mem_ctrls0_0.refreshEnergy        1062097920.000000                       # Energy for refresh commands per rank (pJ)
system.mem_ctrls0_0.actBackEnergy          1352420190                       # Energy for active background per rank (pJ)
system.mem_ctrls0_0.preBackEnergy            25433280                       # Energy for precharge background per rank (pJ)
system.mem_ctrls0_0.actPowerDownEnergy     4341090930                       # Energy for active power-down per rank (pJ)
system.mem_ctrls0_0.prePowerDownEnergy      296499360                       # Energy for precharge power-down per rank (pJ)
system.mem_ctrls0_0.selfRefreshEnergy        27561630                       # Energy for self refresh per rank (pJ)
system.mem_ctrls0_0.totalEnergy            8064186765                       # Total energy per rank (pJ)
system.mem_ctrls0_0.averagePower           601.925592                       # Core power per rank (mW)
system.mem_ctrls0_0.totalIdleTime         10365277750                       # Total Idle time Per DRAM Rank
system.mem_ctrls0_0.memoryStateTime::IDLE     13782000                       # Time in different power states
system.mem_ctrls0_0.memoryStateTime::REF    449394000                       # Time in different power states
system.mem_ctrls0_0.memoryStateTime::SREF     72838750                       # Time in different power states
system.mem_ctrls0_0.memoryStateTime::PRE_PDN    771961500                       # Time in different power states
system.mem_ctrls0_0.memoryStateTime::ACT   2568794250                       # Time in different power states
system.mem_ctrls0_0.memoryStateTime::ACT_PDN   9520544500                       # Time in different power states
system.mem_ctrls0_1.actEnergy               315609420                       # Energy for activate commands per rank (pJ)
system.mem_ctrls0_1.preEnergy               167746590                       # Energy for precharge commands per rank (pJ)
system.mem_ctrls0_1.readEnergy              493716720                       # Energy for read commands per rank (pJ)
system.mem_ctrls0_1.writeEnergy              53290980                       # Energy for write commands per rank (pJ)
system.mem_ctrls0_1.refreshEnergy        1063941840.000000                       # Energy for refresh commands per rank (pJ)
system.mem_ctrls0_1.actBackEnergy          1426041960                       # Energy for active background per rank (pJ)
system.mem_ctrls0_1.preBackEnergy            26410080                       # Energy for precharge background per rank (pJ)
system.mem_ctrls0_1.actPowerDownEnergy     4307601150                       # Energy for active power-down per rank (pJ)
system.mem_ctrls0_1.prePowerDownEnergy      257420640                       # Energy for precharge power-down per rank (pJ)
system.mem_ctrls0_1.selfRefreshEnergy        33014430                       # Energy for self refresh per rank (pJ)
system.mem_ctrls0_1.totalEnergy            8144924640                       # Total energy per rank (pJ)
system.mem_ctrls0_1.averagePower           607.952014                       # Core power per rank (mW)
system.mem_ctrls0_1.totalIdleTime         10201161000                       # Total Idle time Per DRAM Rank
system.mem_ctrls0_1.memoryStateTime::IDLE     15817000                       # Time in different power states
system.mem_ctrls0_1.memoryStateTime::REF    450216000                       # Time in different power states
system.mem_ctrls0_1.memoryStateTime::SREF     84098250                       # Time in different power states
system.mem_ctrls0_1.memoryStateTime::PRE_PDN    670150750                       # Time in different power states
system.mem_ctrls0_1.memoryStateTime::ACT   2730121000                       # Time in different power states
system.mem_ctrls0_1.memoryStateTime::ACT_PDN   9446912000                       # Time in different power states
system.mem_ctrls1.pwrStateResidencyTicks::UNDEFINED  13397315000                       # Cumulative time (in ticks) in various power states
system.mem_ctrls1.bytes_read::ruby.dir_cntrl1      8661888                       # Number of bytes read from this memory
system.mem_ctrls1.bytes_read::total           8661888                       # Number of bytes read from this memory
system.mem_ctrls1.bytes_written::ruby.dir_cntrl1      1321088                       # Number of bytes written to this memory
system.mem_ctrls1.bytes_written::total        1321088                       # Number of bytes written to this memory
system.mem_ctrls1.num_reads::ruby.dir_cntrl1       135342                       # Number of read requests responded to by this memory
system.mem_ctrls1.num_reads::total             135342                       # Number of read requests responded to by this memory
system.mem_ctrls1.num_writes::ruby.dir_cntrl1        20642                       # Number of write requests responded to by this memory
system.mem_ctrls1.num_writes::total             20642                       # Number of write requests responded to by this memory
system.mem_ctrls1.bw_read::ruby.dir_cntrl1    646539101                       # Total read bandwidth from this memory (bytes/s)
system.mem_ctrls1.bw_read::total            646539101                       # Total read bandwidth from this memory (bytes/s)
system.mem_ctrls1.bw_write::ruby.dir_cntrl1     98608415                       # Write bandwidth from this memory (bytes/s)
system.mem_ctrls1.bw_write::total            98608415                       # Write bandwidth from this memory (bytes/s)
system.mem_ctrls1.bw_total::ruby.dir_cntrl1    745147516                       # Total bandwidth to/from this memory (bytes/s)
system.mem_ctrls1.bw_total::total           745147516                       # Total bandwidth to/from this memory (bytes/s)
system.mem_ctrls1.readReqs                     135342                       # Number of read requests accepted
system.mem_ctrls1.avgNetLat                      0.00                       # Average network latency to DRAM controller
system.mem_ctrls1.writeReqs                     20642                       # Number of write requests accepted
system.mem_ctrls1.readBursts                   135342                       # Number of DRAM read bursts, including those serviced by the write queue
system.mem_ctrls1.writeBursts                   20642                       # Number of DRAM write bursts, including those merged in the write queue
system.mem_ctrls1.bytesReadDRAM               8660736                       # Total number of bytes read from DRAM
system.mem_ctrls1.bytesReadWrQ                   1152                       # Total number of bytes read from write queue
system.mem_ctrls1.bytesWritten                1319744                       # Total number of bytes written to DRAM
system.mem_ctrls1.bytesReadSys                8661888                       # Total read bytes from the system interface side
system.mem_ctrls1.bytesWrittenSys             1321088                       # Total written bytes from the system interface side
system.mem_ctrls1.servicedByWrQ                    18                       # Number of DRAM read bursts serviced by the write queue
system.mem_ctrls1.mergedWrBursts                    0                       # Number of DRAM write bursts merged with an existing one
system.mem_ctrls1.neitherReadNorWriteReqs            0                       # Number of requests that are neither read nor write
system.mem_ctrls1.perBankRdBursts::0             8479                       # Per bank write bursts
system.mem_ctrls1.perBankRdBursts::1             8167                       # Per bank write bursts
system.mem_ctrls1.perBankRdBursts::2             8072                       # Per bank write bursts
system.mem_ctrls1.perBankRdBursts::3             8186                       # Per bank write bursts
system.mem_ctrls1.perBankRdBursts::4             8425                       # Per bank write bursts
system.mem_ctrls1.perBankRdBursts::5             7883                       # Per bank write bursts
system.mem_ctrls1.perBankRdBursts::6             8182                       # Per bank write bursts
system.mem_ctrls1.perBankRdBursts::7             8204                       # Per bank write bursts
system.mem_ctrls1.perBankRdBursts::8             8301                       # Per bank write bursts
system.mem_ctrls1.perBankRdBursts::9             8570                       # Per bank write bursts
system.mem_ctrls1.perBankRdBursts::10            9059                       # Per bank write bursts
system.mem_ctrls1.perBankRdBursts::11            9163                       # Per bank write bursts
system.mem_ctrls1.perBankRdBursts::12            9145                       # Per bank write bursts
system.mem_ctrls1.perBankRdBursts::13            8575                       # Per bank write bursts
system.mem_ctrls1.perBankRdBursts::14            8496                       # Per bank write bursts
system.mem_ctrls1.perBankRdBursts::15            8417                       # Per bank write bursts
system.mem_ctrls1.perBankWrBursts::0             1325                       # Per bank write bursts
system.mem_ctrls1.perBankWrBursts::1             1127                       # Per bank write bursts
system.mem_ctrls1.perBankWrBursts::2             1393                       # Per bank write bursts
system.mem_ctrls1.perBankWrBursts::3             1351                       # Per bank write bursts
system.mem_ctrls1.perBankWrBursts::4             1478                       # Per bank write bursts
system.mem_ctrls1.perBankWrBursts::5             1167                       # Per bank write bursts
system.mem_ctrls1.perBankWrBursts::6             1224                       # Per bank write bursts
system.mem_ctrls1.perBankWrBursts::7             1140                       # Per bank write bursts
system.mem_ctrls1.perBankWrBursts::8             1239                       # Per bank write bursts
system.mem_ctrls1.perBankWrBursts::9             1228                       # Per bank write bursts
system.mem_ctrls1.perBankWrBursts::10            1318                       # Per bank write bursts
system.mem_ctrls1.perBankWrBursts::11            1248                       # Per bank write bursts
system.mem_ctrls1.perBankWrBursts::12            1514                       # Per bank write bursts
system.mem_ctrls1.perBankWrBursts::13            1220                       # Per bank write bursts
system.mem_ctrls1.perBankWrBursts::14            1292                       # Per bank write bursts
system.mem_ctrls1.perBankWrBursts::15            1357                       # Per bank write bursts
system.mem_ctrls1.numRdRetry                        0                       # Number of times read queue was full causing retry
system.mem_ctrls1.numWrRetry                        0                       # Number of times write queue was full causing retry
system.mem_ctrls1.totGap                  13396825000                       # Total gap between requests
system.mem_ctrls1.readPktSize::0                    0                       # Read request sizes (log2)
system.mem_ctrls1.readPktSize::1                    0                       # Read request sizes (log2)
system.mem_ctrls1.readPktSize::2                    0                       # Read request sizes (log2)
system.mem_ctrls1.readPktSize::3                    0                       # Read request sizes (log2)
system.mem_ctrls1.readPktSize::4                    0                       # Read request sizes (log2)
system.mem_ctrls1.readPktSize::5                    0                       # Read request sizes (log2)
system.mem_ctrls1.readPktSize::6               135342                       # Read request sizes (log2)
system.mem_ctrls1.writePktSize::0                   0                       # Write request sizes (log2)
system.mem_ctrls1.writePktSize::1                   0                       # Write request sizes (log2)
system.mem_ctrls1.writePktSize::2                   0                       # Write request sizes (log2)
system.mem_ctrls1.writePktSize::3                   0                       # Write request sizes (log2)
system.mem_ctrls1.writePktSize::4                   0                       # Write request sizes (log2)
system.mem_ctrls1.writePktSize::5                   0                       # Write request sizes (log2)
system.mem_ctrls1.writePktSize::6               20642                       # Write request sizes (log2)
system.mem_ctrls1.rdQLenPdf::0                  66898                       # What read queue length does an incoming req see
system.mem_ctrls1.rdQLenPdf::1                  35007                       # What read queue length does an incoming req see
system.mem_ctrls1.rdQLenPdf::2                  18076                       # What read queue length does an incoming req see
system.mem_ctrls1.rdQLenPdf::3                   8921                       # What read queue length does an incoming req see
system.mem_ctrls1.rdQLenPdf::4                   4061                       # What read queue length does an incoming req see
system.mem_ctrls1.rdQLenPdf::5                   1595                       # What read queue length does an incoming req see
system.mem_ctrls1.rdQLenPdf::6                    546                       # What read queue length does an incoming req see
system.mem_ctrls1.rdQLenPdf::7                    162                       # What read queue length does an incoming req see
system.mem_ctrls1.rdQLenPdf::8                     49                       # What read queue length does an incoming req see
system.mem_ctrls1.rdQLenPdf::9                      8                       # What read queue length does an incoming req see
system.mem_ctrls1.rdQLenPdf::10                     1                       # What read queue length does an incoming req see
system.mem_ctrls1.rdQLenPdf::11                     0                       # What read queue length does an incoming req see
system.mem_ctrls1.rdQLenPdf::12                     0                       # What read queue length does an incoming req see
system.mem_ctrls1.rdQLenPdf::13                     0                       # What read queue length does an incoming req see
system.mem_ctrls1.rdQLenPdf::14                     0                       # What read queue length does an incoming req see
system.mem_ctrls1.rdQLenPdf::15                     0                       # What read queue length does an incoming req see
system.mem_ctrls1.rdQLenPdf::16                     0                       # What read queue length does an incoming req see
system.mem_ctrls1.rdQLenPdf::17                     0                       # What read queue length does an incoming req see
system.mem_ctrls1.rdQLenPdf::18                     0                       # What read queue length does an incoming req see
system.mem_ctrls1.rdQLenPdf::19                     0                       # What read queue length does an incoming req see
system.mem_ctrls1.rdQLenPdf::20                     0                       # What read queue length does an incoming req see
system.mem_ctrls1.rdQLenPdf::21                     0                       # What read queue length does an incoming req see
system.mem_ctrls1.rdQLenPdf::22                     0                       # What read queue length does an incoming req see
system.mem_ctrls1.rdQLenPdf::23                     0                       # What read queue length does an incoming req see
system.mem_ctrls1.rdQLenPdf::24                     0                       # What read queue length does an incoming req see
system.mem_ctrls1.rdQLenPdf::25                     0                       # What read queue length does an incoming req see
system.mem_ctrls1.rdQLenPdf::26                     0                       # What read queue length does an incoming req see
system.mem_ctrls1.rdQLenPdf::27                     0                       # What read queue length does an incoming req see
system.mem_ctrls1.rdQLenPdf::28                     0                       # What read queue length does an incoming req see
system.mem_ctrls1.rdQLenPdf::29                     0                       # What read queue length does an incoming req see
system.mem_ctrls1.rdQLenPdf::30                     0                       # What read queue length does an incoming req see
system.mem_ctrls1.rdQLenPdf::31                     0                       # What read queue length does an incoming req see
system.mem_ctrls1.wrQLenPdf::0                      1                       # What write queue length does an incoming req see
system.mem_ctrls1.wrQLenPdf::1                      1                       # What write queue length does an incoming req see
system.mem_ctrls1.wrQLenPdf::2                      1                       # What write queue length does an incoming req see
system.mem_ctrls1.wrQLenPdf::3                      1                       # What write queue length does an incoming req see
system.mem_ctrls1.wrQLenPdf::4                      1                       # What write queue length does an incoming req see
system.mem_ctrls1.wrQLenPdf::5                      1                       # What write queue length does an incoming req see
system.mem_ctrls1.wrQLenPdf::6                      1                       # What write queue length does an incoming req see
system.mem_ctrls1.wrQLenPdf::7                      1                       # What write queue length does an incoming req see
system.mem_ctrls1.wrQLenPdf::8                      1                       # What write queue length does an incoming req see
system.mem_ctrls1.wrQLenPdf::9                      1                       # What write queue length does an incoming req see
system.mem_ctrls1.wrQLenPdf::10                     1                       # What write queue length does an incoming req see
system.mem_ctrls1.wrQLenPdf::11                     1                       # What write queue length does an incoming req see
system.mem_ctrls1.wrQLenPdf::12                     1                       # What write queue length does an incoming req see
system.mem_ctrls1.wrQLenPdf::13                     1                       # What write queue length does an incoming req see
system.mem_ctrls1.wrQLenPdf::14                     1                       # What write queue length does an incoming req see
system.mem_ctrls1.wrQLenPdf::15                   468                       # What write queue length does an incoming req see
system.mem_ctrls1.wrQLenPdf::16                   527                       # What write queue length does an incoming req see
system.mem_ctrls1.wrQLenPdf::17                   894                       # What write queue length does an incoming req see
system.mem_ctrls1.wrQLenPdf::18                  1182                       # What write queue length does an incoming req see
system.mem_ctrls1.wrQLenPdf::19                  1252                       # What write queue length does an incoming req see
system.mem_ctrls1.wrQLenPdf::20                  1253                       # What write queue length does an incoming req see
system.mem_ctrls1.wrQLenPdf::21                  1257                       # What write queue length does an incoming req see
system.mem_ctrls1.wrQLenPdf::22                  1249                       # What write queue length does an incoming req see
system.mem_ctrls1.wrQLenPdf::23                  1252                       # What write queue length does an incoming req see
system.mem_ctrls1.wrQLenPdf::24                  1255                       # What write queue length does an incoming req see
system.mem_ctrls1.wrQLenPdf::25                  1256                       # What write queue length does an incoming req see
system.mem_ctrls1.wrQLenPdf::26                  1269                       # What write queue length does an incoming req see
system.mem_ctrls1.wrQLenPdf::27                  1268                       # What write queue length does an incoming req see
system.mem_ctrls1.wrQLenPdf::28                  1262                       # What write queue length does an incoming req see
system.mem_ctrls1.wrQLenPdf::29                  1268                       # What write queue length does an incoming req see
system.mem_ctrls1.wrQLenPdf::30                  1247                       # What write queue length does an incoming req see
system.mem_ctrls1.wrQLenPdf::31                  1231                       # What write queue length does an incoming req see
system.mem_ctrls1.wrQLenPdf::32                  1221                       # What write queue length does an incoming req see
system.mem_ctrls1.wrQLenPdf::33                    13                       # What write queue length does an incoming req see
system.mem_ctrls1.wrQLenPdf::34                     2                       # What write queue length does an incoming req see
system.mem_ctrls1.wrQLenPdf::35                     1                       # What write queue length does an incoming req see
system.mem_ctrls1.wrQLenPdf::36                     0                       # What write queue length does an incoming req see
system.mem_ctrls1.wrQLenPdf::37                     0                       # What write queue length does an incoming req see
system.mem_ctrls1.wrQLenPdf::38                     0                       # What write queue length does an incoming req see
system.mem_ctrls1.wrQLenPdf::39                     0                       # What write queue length does an incoming req see
system.mem_ctrls1.wrQLenPdf::40                     0                       # What write queue length does an incoming req see
system.mem_ctrls1.wrQLenPdf::41                     0                       # What write queue length does an incoming req see
system.mem_ctrls1.wrQLenPdf::42                     0                       # What write queue length does an incoming req see
system.mem_ctrls1.wrQLenPdf::43                     0                       # What write queue length does an incoming req see
system.mem_ctrls1.wrQLenPdf::44                     0                       # What write queue length does an incoming req see
system.mem_ctrls1.wrQLenPdf::45                     0                       # What write queue length does an incoming req see
system.mem_ctrls1.wrQLenPdf::46                     0                       # What write queue length does an incoming req see
system.mem_ctrls1.wrQLenPdf::47                     0                       # What write queue length does an incoming req see
system.mem_ctrls1.wrQLenPdf::48                     0                       # What write queue length does an incoming req see
system.mem_ctrls1.wrQLenPdf::49                     0                       # What write queue length does an incoming req see
system.mem_ctrls1.wrQLenPdf::50                     0                       # What write queue length does an incoming req see
system.mem_ctrls1.wrQLenPdf::51                     0                       # What write queue length does an incoming req see
system.mem_ctrls1.wrQLenPdf::52                     0                       # What write queue length does an incoming req see
system.mem_ctrls1.wrQLenPdf::53                     0                       # What write queue length does an incoming req see
system.mem_ctrls1.wrQLenPdf::54                     0                       # What write queue length does an incoming req see
system.mem_ctrls1.wrQLenPdf::55                     0                       # What write queue length does an incoming req see
system.mem_ctrls1.wrQLenPdf::56                     0                       # What write queue length does an incoming req see
system.mem_ctrls1.wrQLenPdf::57                     0                       # What write queue length does an incoming req see
system.mem_ctrls1.wrQLenPdf::58                     0                       # What write queue length does an incoming req see
system.mem_ctrls1.wrQLenPdf::59                     0                       # What write queue length does an incoming req see
system.mem_ctrls1.wrQLenPdf::60                     0                       # What write queue length does an incoming req see
system.mem_ctrls1.wrQLenPdf::61                     0                       # What write queue length does an incoming req see
system.mem_ctrls1.wrQLenPdf::62                     0                       # What write queue length does an incoming req see
system.mem_ctrls1.wrQLenPdf::63                     0                       # What write queue length does an incoming req see
system.mem_ctrls1.bytesPerActivate::samples        86744                       # Bytes accessed per row activation
system.mem_ctrls1.bytesPerActivate::mean   115.050078                       # Bytes accessed per row activation
system.mem_ctrls1.bytesPerActivate::gmean    88.425432                       # Bytes accessed per row activation
system.mem_ctrls1.bytesPerActivate::stdev   129.066945                       # Bytes accessed per row activation
system.mem_ctrls1.bytesPerActivate::0-127        61969     71.44%     71.44% # Bytes accessed per row activation
system.mem_ctrls1.bytesPerActivate::128-255        16426     18.94%     90.38% # Bytes accessed per row activation
system.mem_ctrls1.bytesPerActivate::256-383         3506      4.04%     94.42% # Bytes accessed per row activation
system.mem_ctrls1.bytesPerActivate::384-511         1889      2.18%     96.59% # Bytes accessed per row activation
system.mem_ctrls1.bytesPerActivate::512-639         1135      1.31%     97.90% # Bytes accessed per row activation
system.mem_ctrls1.bytesPerActivate::640-767         1165      1.34%     99.25% # Bytes accessed per row activation
system.mem_ctrls1.bytesPerActivate::768-895          129      0.15%     99.39% # Bytes accessed per row activation
system.mem_ctrls1.bytesPerActivate::896-1023           98      0.11%     99.51% # Bytes accessed per row activation
system.mem_ctrls1.bytesPerActivate::1024-1151          427      0.49%    100.00% # Bytes accessed per row activation
system.mem_ctrls1.bytesPerActivate::total        86744                       # Bytes accessed per row activation
system.mem_ctrls1.rdPerTurnAround::samples         1220                       # Reads before turning the bus around for writes
system.mem_ctrls1.rdPerTurnAround::mean    110.916393                       # Reads before turning the bus around for writes
system.mem_ctrls1.rdPerTurnAround::gmean    31.818428                       # Reads before turning the bus around for writes
system.mem_ctrls1.rdPerTurnAround::stdev  1941.974594                       # Reads before turning the bus around for writes
system.mem_ctrls1.rdPerTurnAround::0-4095         1219     99.92%     99.92% # Reads before turning the bus around for writes
system.mem_ctrls1.rdPerTurnAround::65536-69631            1      0.08%    100.00% # Reads before turning the bus around for writes
system.mem_ctrls1.rdPerTurnAround::total         1220                       # Reads before turning the bus around for writes
system.mem_ctrls1.wrPerTurnAround::samples         1220                       # Writes before turning the bus around for reads
system.mem_ctrls1.wrPerTurnAround::mean     16.902459                       # Writes before turning the bus around for reads
system.mem_ctrls1.wrPerTurnAround::gmean    16.868280                       # Writes before turning the bus around for reads
system.mem_ctrls1.wrPerTurnAround::stdev     1.088908                       # Writes before turning the bus around for reads
system.mem_ctrls1.wrPerTurnAround::16             686     56.23%     56.23% # Writes before turning the bus around for reads
system.mem_ctrls1.wrPerTurnAround::17              54      4.43%     60.66% # Writes before turning the bus around for reads
system.mem_ctrls1.wrPerTurnAround::18             406     33.28%     93.93% # Writes before turning the bus around for reads
system.mem_ctrls1.wrPerTurnAround::19              63      5.16%     99.10% # Writes before turning the bus around for reads
system.mem_ctrls1.wrPerTurnAround::20               9      0.74%     99.84% # Writes before turning the bus around for reads
system.mem_ctrls1.wrPerTurnAround::21               2      0.16%    100.00% # Writes before turning the bus around for reads
system.mem_ctrls1.wrPerTurnAround::total         1220                       # Writes before turning the bus around for reads
system.mem_ctrls1.totQLat                  3864288000                       # Total ticks spent queuing
system.mem_ctrls1.totMemAccLat             6401613000                       # Total ticks spent from burst creation until serviced by the DRAM
system.mem_ctrls1.totBusLat                 676620000                       # Total ticks spent in databus transfers
system.mem_ctrls1.avgQLat                    28555.82                       # Average queueing delay per DRAM burst
system.mem_ctrls1.avgBusLat                   5000.00                       # Average bus latency per DRAM burst
system.mem_ctrls1.avgMemAccLat               47305.82                       # Average memory access latency per DRAM burst
system.mem_ctrls1.avgRdBW                      646.45                       # Average DRAM read bandwidth in MiByte/s
system.mem_ctrls1.avgWrBW                       98.51                       # Average achieved write bandwidth in MiByte/s
system.mem_ctrls1.avgRdBWSys                   646.54                       # Average system read bandwidth in MiByte/s
system.mem_ctrls1.avgWrBWSys                    98.61                       # Average system write bandwidth in MiByte/s
system.mem_ctrls1.peakBW                     12800.00                       # Theoretical peak bandwidth in MiByte/s
system.mem_ctrls1.busUtil                        5.82                       # Data bus utilization in percentage
system.mem_ctrls1.busUtilRead                    5.05                       # Data bus utilization in percentage for reads
system.mem_ctrls1.busUtilWrite                   0.77                       # Data bus utilization in percentage for writes
system.mem_ctrls1.avgRdQLen                      1.53                       # Average read queue length when enqueuing
system.mem_ctrls1.avgWrQLen                     10.85                       # Average write queue length when enqueuing
system.mem_ctrls1.readRowHits                   63012                       # Number of row buffer hits during reads
system.mem_ctrls1.writeRowHits                   6184                       # Number of row buffer hits during writes
system.mem_ctrls1.readRowHitRate                46.56                       # Row buffer hit rate for reads
system.mem_ctrls1.writeRowHitRate               29.96                       # Row buffer hit rate for writes
system.mem_ctrls1.avgGap                     85885.89                       # Average gap between requests
system.mem_ctrls1.pageHitRate                   44.37                       # Row buffer hit rate, read and write combined
system.mem_ctrls1_0.actEnergy               296545620                       # Energy for activate commands per rank (pJ)
system.mem_ctrls1_0.preEnergy               157598760                       # Energy for precharge commands per rank (pJ)
system.mem_ctrls1_0.readEnergy              468369720                       # Energy for read commands per rank (pJ)
system.mem_ctrls1_0.writeEnergy              53270100                       # Energy for write commands per rank (pJ)
system.mem_ctrls1_0.refreshEnergy        1063941840.000000                       # Energy for refresh commands per rank (pJ)
system.mem_ctrls1_0.actBackEnergy          1354791390                       # Energy for active background per rank (pJ)
system.mem_ctrls1_0.preBackEnergy            25666560                       # Energy for precharge background per rank (pJ)
system.mem_ctrls1_0.actPowerDownEnergy     4326749160                       # Energy for active power-down per rank (pJ)
system.mem_ctrls1_0.prePowerDownEnergy      310693440                       # Energy for precharge power-down per rank (pJ)
system.mem_ctrls1_0.selfRefreshEnergy        25978515                       # Energy for self refresh per rank (pJ)
system.mem_ctrls1_0.totalEnergy            8083893975                       # Total energy per rank (pJ)
system.mem_ctrls1_0.averagePower           603.396574                       # Core power per rank (mW)
system.mem_ctrls1_0.totalIdleTime         10358843750                       # Total Idle time Per DRAM Rank
system.mem_ctrls1_0.memoryStateTime::IDLE     14928000                       # Time in different power states
system.mem_ctrls1_0.memoryStateTime::REF    450204000                       # Time in different power states
system.mem_ctrls1_0.memoryStateTime::SREF     61222500                       # Time in different power states
system.mem_ctrls1_0.memoryStateTime::PRE_PDN    808893500                       # Time in different power states
system.mem_ctrls1_0.memoryStateTime::ACT   2572923500                       # Time in different power states
system.mem_ctrls1_0.memoryStateTime::ACT_PDN   9489143500                       # Time in different power states
system.mem_ctrls1_1.actEnergy               322842240                       # Energy for activate commands per rank (pJ)
system.mem_ctrls1_1.preEnergy               171594720                       # Energy for precharge commands per rank (pJ)
system.mem_ctrls1_1.readEnergy              497843640                       # Energy for read commands per rank (pJ)
system.mem_ctrls1_1.writeEnergy              54371520                       # Energy for write commands per rank (pJ)
system.mem_ctrls1_1.refreshEnergy        1065785760.000000                       # Energy for refresh commands per rank (pJ)
system.mem_ctrls1_1.actBackEnergy          1436944350                       # Energy for active background per rank (pJ)
system.mem_ctrls1_1.preBackEnergy            26941920                       # Energy for precharge background per rank (pJ)
system.mem_ctrls1_1.actPowerDownEnergy     4288839030                       # Energy for active power-down per rank (pJ)
system.mem_ctrls1_1.prePowerDownEnergy      263514240                       # Energy for precharge power-down per rank (pJ)
system.mem_ctrls1_1.selfRefreshEnergy        34674345                       # Energy for self refresh per rank (pJ)
system.mem_ctrls1_1.totalEnergy            8163431715                       # Total energy per rank (pJ)
system.mem_ctrls1_1.averagePower           609.326480                       # Core power per rank (mW)
system.mem_ctrls1_1.totalIdleTime         10176216000                       # Total Idle time Per DRAM Rank
system.mem_ctrls1_1.memoryStateTime::IDLE     16802250                       # Time in different power states
system.mem_ctrls1_1.memoryStateTime::REF    450836000                       # Time in different power states
system.mem_ctrls1_1.memoryStateTime::SREF     84350250                       # Time in different power states
system.mem_ctrls1_1.memoryStateTime::PRE_PDN    685997000                       # Time in different power states
system.mem_ctrls1_1.memoryStateTime::ACT   2753460750                       # Time in different power states
system.mem_ctrls1_1.memoryStateTime::ACT_PDN   9405868750                       # Time in different power states
system.mem_ctrls2.pwrStateResidencyTicks::UNDEFINED  13397315000                       # Cumulative time (in ticks) in various power states
system.mem_ctrls2.bytes_read::ruby.dir_cntrl2      8578432                       # Number of bytes read from this memory
system.mem_ctrls2.bytes_read::total           8578432                       # Number of bytes read from this memory
system.mem_ctrls2.bytes_written::ruby.dir_cntrl2      1302528                       # Number of bytes written to this memory
system.mem_ctrls2.bytes_written::total        1302528                       # Number of bytes written to this memory
system.mem_ctrls2.num_reads::ruby.dir_cntrl2       134038                       # Number of read requests responded to by this memory
system.mem_ctrls2.num_reads::total             134038                       # Number of read requests responded to by this memory
system.mem_ctrls2.num_writes::ruby.dir_cntrl2        20352                       # Number of write requests responded to by this memory
system.mem_ctrls2.num_writes::total             20352                       # Number of write requests responded to by this memory
system.mem_ctrls2.bw_read::ruby.dir_cntrl2    640309793                       # Total read bandwidth from this memory (bytes/s)
system.mem_ctrls2.bw_read::total            640309793                       # Total read bandwidth from this memory (bytes/s)
system.mem_ctrls2.bw_write::ruby.dir_cntrl2     97223063                       # Write bandwidth from this memory (bytes/s)
system.mem_ctrls2.bw_write::total            97223063                       # Write bandwidth from this memory (bytes/s)
system.mem_ctrls2.bw_total::ruby.dir_cntrl2    737532856                       # Total bandwidth to/from this memory (bytes/s)
system.mem_ctrls2.bw_total::total           737532856                       # Total bandwidth to/from this memory (bytes/s)
system.mem_ctrls2.readReqs                     134038                       # Number of read requests accepted
system.mem_ctrls2.avgNetLat                      0.00                       # Average network latency to DRAM controller
system.mem_ctrls2.writeReqs                     20352                       # Number of write requests accepted
system.mem_ctrls2.readBursts                   134038                       # Number of DRAM read bursts, including those serviced by the write queue
system.mem_ctrls2.writeBursts                   20352                       # Number of DRAM write bursts, including those merged in the write queue
system.mem_ctrls2.bytesReadDRAM               8577600                       # Total number of bytes read from DRAM
system.mem_ctrls2.bytesReadWrQ                    832                       # Total number of bytes read from write queue
system.mem_ctrls2.bytesWritten                1300608                       # Total number of bytes written to DRAM
system.mem_ctrls2.bytesReadSys                8578432                       # Total read bytes from the system interface side
system.mem_ctrls2.bytesWrittenSys             1302528                       # Total written bytes from the system interface side
system.mem_ctrls2.servicedByWrQ                    13                       # Number of DRAM read bursts serviced by the write queue
system.mem_ctrls2.mergedWrBursts                    0                       # Number of DRAM write bursts merged with an existing one
system.mem_ctrls2.neitherReadNorWriteReqs            0                       # Number of requests that are neither read nor write
system.mem_ctrls2.perBankRdBursts::0             8389                       # Per bank write bursts
system.mem_ctrls2.perBankRdBursts::1             8085                       # Per bank write bursts
system.mem_ctrls2.perBankRdBursts::2             7965                       # Per bank write bursts
system.mem_ctrls2.perBankRdBursts::3             8083                       # Per bank write bursts
system.mem_ctrls2.perBankRdBursts::4             8303                       # Per bank write bursts
system.mem_ctrls2.perBankRdBursts::5             7800                       # Per bank write bursts
system.mem_ctrls2.perBankRdBursts::6             8122                       # Per bank write bursts
system.mem_ctrls2.perBankRdBursts::7             8131                       # Per bank write bursts
system.mem_ctrls2.perBankRdBursts::8             8183                       # Per bank write bursts
system.mem_ctrls2.perBankRdBursts::9             8502                       # Per bank write bursts
system.mem_ctrls2.perBankRdBursts::10            8992                       # Per bank write bursts
system.mem_ctrls2.perBankRdBursts::11            9113                       # Per bank write bursts
system.mem_ctrls2.perBankRdBursts::12            9102                       # Per bank write bursts
system.mem_ctrls2.perBankRdBursts::13            8504                       # Per bank write bursts
system.mem_ctrls2.perBankRdBursts::14            8456                       # Per bank write bursts
system.mem_ctrls2.perBankRdBursts::15            8295                       # Per bank write bursts
system.mem_ctrls2.perBankWrBursts::0             1302                       # Per bank write bursts
system.mem_ctrls2.perBankWrBursts::1             1131                       # Per bank write bursts
system.mem_ctrls2.perBankWrBursts::2             1362                       # Per bank write bursts
system.mem_ctrls2.perBankWrBursts::3             1325                       # Per bank write bursts
system.mem_ctrls2.perBankWrBursts::4             1432                       # Per bank write bursts
system.mem_ctrls2.perBankWrBursts::5             1164                       # Per bank write bursts
system.mem_ctrls2.perBankWrBursts::6             1214                       # Per bank write bursts
system.mem_ctrls2.perBankWrBursts::7             1165                       # Per bank write bursts
system.mem_ctrls2.perBankWrBursts::8             1218                       # Per bank write bursts
system.mem_ctrls2.perBankWrBursts::9             1196                       # Per bank write bursts
system.mem_ctrls2.perBankWrBursts::10            1282                       # Per bank write bursts
system.mem_ctrls2.perBankWrBursts::11            1202                       # Per bank write bursts
system.mem_ctrls2.perBankWrBursts::12            1532                       # Per bank write bursts
system.mem_ctrls2.perBankWrBursts::13            1189                       # Per bank write bursts
system.mem_ctrls2.perBankWrBursts::14            1300                       # Per bank write bursts
system.mem_ctrls2.perBankWrBursts::15            1308                       # Per bank write bursts
system.mem_ctrls2.numRdRetry                        0                       # Number of times read queue was full causing retry
system.mem_ctrls2.numWrRetry                        0                       # Number of times write queue was full causing retry
system.mem_ctrls2.totGap                  13396363000                       # Total gap between requests
system.mem_ctrls2.readPktSize::0                    0                       # Read request sizes (log2)
system.mem_ctrls2.readPktSize::1                    0                       # Read request sizes (log2)
system.mem_ctrls2.readPktSize::2                    0                       # Read request sizes (log2)
system.mem_ctrls2.readPktSize::3                    0                       # Read request sizes (log2)
system.mem_ctrls2.readPktSize::4                    0                       # Read request sizes (log2)
system.mem_ctrls2.readPktSize::5                    0                       # Read request sizes (log2)
system.mem_ctrls2.readPktSize::6               134038                       # Read request sizes (log2)
system.mem_ctrls2.writePktSize::0                   0                       # Write request sizes (log2)
system.mem_ctrls2.writePktSize::1                   0                       # Write request sizes (log2)
system.mem_ctrls2.writePktSize::2                   0                       # Write request sizes (log2)
system.mem_ctrls2.writePktSize::3                   0                       # Write request sizes (log2)
system.mem_ctrls2.writePktSize::4                   0                       # Write request sizes (log2)
system.mem_ctrls2.writePktSize::5                   0                       # Write request sizes (log2)
system.mem_ctrls2.writePktSize::6               20352                       # Write request sizes (log2)
system.mem_ctrls2.rdQLenPdf::0                  65810                       # What read queue length does an incoming req see
system.mem_ctrls2.rdQLenPdf::1                  34976                       # What read queue length does an incoming req see
system.mem_ctrls2.rdQLenPdf::2                  17886                       # What read queue length does an incoming req see
system.mem_ctrls2.rdQLenPdf::3                   8863                       # What read queue length does an incoming req see
system.mem_ctrls2.rdQLenPdf::4                   4049                       # What read queue length does an incoming req see
system.mem_ctrls2.rdQLenPdf::5                   1610                       # What read queue length does an incoming req see
system.mem_ctrls2.rdQLenPdf::6                    589                       # What read queue length does an incoming req see
system.mem_ctrls2.rdQLenPdf::7                    175                       # What read queue length does an incoming req see
system.mem_ctrls2.rdQLenPdf::8                     51                       # What read queue length does an incoming req see
system.mem_ctrls2.rdQLenPdf::9                     13                       # What read queue length does an incoming req see
system.mem_ctrls2.rdQLenPdf::10                     2                       # What read queue length does an incoming req see
system.mem_ctrls2.rdQLenPdf::11                     1                       # What read queue length does an incoming req see
system.mem_ctrls2.rdQLenPdf::12                     0                       # What read queue length does an incoming req see
system.mem_ctrls2.rdQLenPdf::13                     0                       # What read queue length does an incoming req see
system.mem_ctrls2.rdQLenPdf::14                     0                       # What read queue length does an incoming req see
system.mem_ctrls2.rdQLenPdf::15                     0                       # What read queue length does an incoming req see
system.mem_ctrls2.rdQLenPdf::16                     0                       # What read queue length does an incoming req see
system.mem_ctrls2.rdQLenPdf::17                     0                       # What read queue length does an incoming req see
system.mem_ctrls2.rdQLenPdf::18                     0                       # What read queue length does an incoming req see
system.mem_ctrls2.rdQLenPdf::19                     0                       # What read queue length does an incoming req see
system.mem_ctrls2.rdQLenPdf::20                     0                       # What read queue length does an incoming req see
system.mem_ctrls2.rdQLenPdf::21                     0                       # What read queue length does an incoming req see
system.mem_ctrls2.rdQLenPdf::22                     0                       # What read queue length does an incoming req see
system.mem_ctrls2.rdQLenPdf::23                     0                       # What read queue length does an incoming req see
system.mem_ctrls2.rdQLenPdf::24                     0                       # What read queue length does an incoming req see
system.mem_ctrls2.rdQLenPdf::25                     0                       # What read queue length does an incoming req see
system.mem_ctrls2.rdQLenPdf::26                     0                       # What read queue length does an incoming req see
system.mem_ctrls2.rdQLenPdf::27                     0                       # What read queue length does an incoming req see
system.mem_ctrls2.rdQLenPdf::28                     0                       # What read queue length does an incoming req see
system.mem_ctrls2.rdQLenPdf::29                     0                       # What read queue length does an incoming req see
system.mem_ctrls2.rdQLenPdf::30                     0                       # What read queue length does an incoming req see
system.mem_ctrls2.rdQLenPdf::31                     0                       # What read queue length does an incoming req see
system.mem_ctrls2.wrQLenPdf::0                      1                       # What write queue length does an incoming req see
system.mem_ctrls2.wrQLenPdf::1                      1                       # What write queue length does an incoming req see
system.mem_ctrls2.wrQLenPdf::2                      1                       # What write queue length does an incoming req see
system.mem_ctrls2.wrQLenPdf::3                      1                       # What write queue length does an incoming req see
system.mem_ctrls2.wrQLenPdf::4                      1                       # What write queue length does an incoming req see
system.mem_ctrls2.wrQLenPdf::5                      1                       # What write queue length does an incoming req see
system.mem_ctrls2.wrQLenPdf::6                      1                       # What write queue length does an incoming req see
system.mem_ctrls2.wrQLenPdf::7                      1                       # What write queue length does an incoming req see
system.mem_ctrls2.wrQLenPdf::8                      1                       # What write queue length does an incoming req see
system.mem_ctrls2.wrQLenPdf::9                      1                       # What write queue length does an incoming req see
system.mem_ctrls2.wrQLenPdf::10                     1                       # What write queue length does an incoming req see
system.mem_ctrls2.wrQLenPdf::11                     1                       # What write queue length does an incoming req see
system.mem_ctrls2.wrQLenPdf::12                     1                       # What write queue length does an incoming req see
system.mem_ctrls2.wrQLenPdf::13                     1                       # What write queue length does an incoming req see
system.mem_ctrls2.wrQLenPdf::14                     1                       # What write queue length does an incoming req see
system.mem_ctrls2.wrQLenPdf::15                   482                       # What write queue length does an incoming req see
system.mem_ctrls2.wrQLenPdf::16                   532                       # What write queue length does an incoming req see
system.mem_ctrls2.wrQLenPdf::17                   912                       # What write queue length does an incoming req see
system.mem_ctrls2.wrQLenPdf::18                  1168                       # What write queue length does an incoming req see
system.mem_ctrls2.wrQLenPdf::19                  1219                       # What write queue length does an incoming req see
system.mem_ctrls2.wrQLenPdf::20                  1226                       # What write queue length does an incoming req see
system.mem_ctrls2.wrQLenPdf::21                  1227                       # What write queue length does an incoming req see
[...]
system.ruby.L1Cache_Controller.MR.Ifetch::total         9131                      
system.ruby.L1Cache_Controller.MR.Store  |           9      7.32%      7.32% |           9      7.32%     14.63% |           8      6.50%     21.14% |           9      7.32%     28.46% |           9      7.32%     35.77% |           0      0.00%     35.77% |           0      0.00%     35.77% |           8      6.50%     42.28% |          10      8.13%     50.41% |           7      5.69%     56.10% |          10      8.13%     64.23% |           8      6.50%     70.73% |           9      7.32%     78.05% |          10      8.13%     86.18% |           8      6.50%     92.68% |           9      7.32%    100.00%
system.ruby.L1Cache_Controller.MR.Store::total          123                      
system.ruby.L1Cache_Controller.MMR.Load  |        1286      6.79%      6.79% |        1242      6.55%     13.34% |         974      5.14%     18.48% |        1051      5.55%     24.03% |        5516     29.11%     53.14% |           0      0.00%     53.14% |           0      0.00%     53.14% |        1003      5.29%     58.43% |        1106      5.84%     64.27% |         890      4.70%     68.96% |        1283      6.77%     75.73% |        1099      5.80%     81.53% |         868      4.58%     86.12% |         742      3.92%     90.03% |         837      4.42%     94.45% |        1052      5.55%    100.00%
system.ruby.L1Cache_Controller.MMR.Load::total        18949                      
system.ruby.L1Cache_Controller.MMR.Store |        1333      7.15%      7.15% |         814      4.37%     11.52% |        2106     11.30%     22.81% |        1438      7.71%     30.52% |         988      5.30%     35.82% |           0      0.00%     35.82% |           0      0.00%     35.82% |        1495      8.02%     43.84% |        1364      7.32%     51.16% |         724      3.88%     55.04% |        1417      7.60%     62.64% |        1387      7.44%     70.08% |        1660      8.90%     78.98% |         907      4.86%     83.85% |        1455      7.80%     91.65% |        1557      8.35%    100.00%
system.ruby.L1Cache_Controller.MMR.Store::total        18645                      
system.ruby.L1Cache_Controller.IM.Ack    |      158936      8.56%      8.56% |       36834      1.98%     10.54% |      151560      8.16%     18.70% |      153396      8.26%     26.96% |       37115      2.00%     28.95% |        6094      0.33%     29.28% |        6181      0.33%     29.61% |      155493      8.37%     37.98% |      165822      8.93%     46.91% |       37941      2.04%     48.95% |      158337      8.52%     57.48% |      164909      8.88%     66.36% |      156426      8.42%     74.78% |      154911      8.34%     83.12% |      155881      8.39%     91.51% |      157766      8.49%    100.00%
system.ruby.L1Cache_Controller.IM.Ack::total      1857602                      
system.ruby.L1Cache_Controller.IM.Exclusive_Data |       10613      8.54%      8.54% |        2471      1.99%     10.53% |       10118      8.14%     18.68% |       10241      8.24%     26.92% |        2492      2.01%     28.93% |         525      0.42%     29.35% |         525      0.42%     29.77% |       10376      8.35%     38.12% |       11062      8.90%     47.03% |        2545      2.05%     49.08% |       10568      8.51%     57.58% |       11000      8.85%     66.44% |       10437      8.40%     74.84% |       10337      8.32%     83.16% |       10400      8.37%     91.53% |       10523      8.47%    100.00%
system.ruby.L1Cache_Controller.IM.Exclusive_Data::total       124233                      
system.ruby.L1Cache_Controller.SM.Ack    |           6      5.22%      5.22% |           7      6.09%     11.30% |           7      6.09%     17.39% |           6      5.22%     22.61% |           4      3.48%     26.09% |           0      0.00%     26.09% |           0      0.00%     26.09% |           6      5.22%     31.30% |          13     11.30%     42.61% |           3      2.61%     45.22% |           9      7.83%     53.04% |          13     11.30%     64.35% |          13     11.30%     75.65% |           8      6.96%     82.61% |           9      7.83%     90.43% |          11      9.57%    100.00%
system.ruby.L1Cache_Controller.SM.Ack::total          115                      
system.ruby.L1Cache_Controller.SM.Data   |           1      7.14%      7.14% |           1      7.14%     14.29% |           1      7.14%     21.43% |           1      7.14%     28.57% |           1      7.14%     35.71% |           0      0.00%     35.71% |           0      0.00%     35.71% |           1      7.14%     42.86% |           1      7.14%     50.00% |           1      7.14%     57.14% |           1      7.14%     64.29% |           1      7.14%     71.43% |           1      7.14%     78.57% |           1      7.14%     85.71% |           1      7.14%     92.86% |           1      7.14%    100.00%
system.ruby.L1Cache_Controller.SM.Data::total           14                      
system.ruby.L1Cache_Controller.ISM.Ack   |           8      9.88%      9.88% |           7      8.64%     18.52% |           7      8.64%     27.16% |           8      9.88%     37.04% |          10     12.35%     49.38% |           0      0.00%     49.38% |           0      0.00%     49.38% |           8      9.88%     59.26% |           1      1.23%     60.49% |          11     13.58%     74.07% |           5      6.17%     80.25% |           1      1.23%     81.48% |           1      1.23%     82.72% |           6      7.41%     90.12% |           5      6.17%     96.30% |           3      3.70%    100.00%
system.ruby.L1Cache_Controller.ISM.Ack::total           81                      
system.ruby.L1Cache_Controller.ISM.All_acks_no_sharers |           1      7.14%      7.14% |           1      7.14%     14.29% |           1      7.14%     21.43% |           1      7.14%     28.57% |           1      7.14%     35.71% |           0      0.00%     35.71% |           0      0.00%     35.71% |           1      7.14%     42.86% |           1      7.14%     50.00% |           1      7.14%     57.14% |           1      7.14%     64.29% |           1      7.14%     71.43% |           1      7.14%     78.57% |           1      7.14%     85.71% |           1      7.14%     92.86% |           1      7.14%    100.00%
system.ruby.L1Cache_Controller.ISM.All_acks_no_sharers::total           14                      
system.ruby.L1Cache_Controller.M_W.Load  |           0      0.00%      0.00% |           0      0.00%      0.00% |           0      0.00%      0.00% |           0      0.00%      0.00% |           1     33.33%     33.33% |           0      0.00%     33.33% |           0      0.00%     33.33% |           0      0.00%     33.33% |           0      0.00%     33.33% |           0      0.00%     33.33% |           0      0.00%     33.33% |           1     33.33%     66.67% |           0      0.00%     66.67% |           0      0.00%     66.67% |           1     33.33%    100.00% |           0      0.00%    100.00%
system.ruby.L1Cache_Controller.M_W.Load::total            3                      
system.ruby.L1Cache_Controller.M_W.Store |           0      0.00%      0.00% |           0      0.00%      0.00% |           0      0.00%      0.00% |           0      0.00%      0.00% |           1     33.33%     33.33% |           0      0.00%     33.33% |           0      0.00%     33.33% |           0      0.00%     33.33% |           2     66.67%    100.00% |           0      0.00%    100.00% |           0      0.00%    100.00% |           0      0.00%    100.00% |           0      0.00%    100.00% |           0      0.00%    100.00% |           0      0.00%    100.00% |           0      0.00%    100.00%
system.ruby.L1Cache_Controller.M_W.Store::total            3                      
system.ruby.L1Cache_Controller.M_W.Ack   |         677      7.29%      7.29% |         706      7.60%     14.89% |         556      5.99%     20.88% |         630      6.78%     27.66% |         743      8.00%     35.66% |        1519     16.35%     52.01% |        1424     15.33%     67.34% |         377      4.06%     71.40% |         269      2.90%     74.30% |         545      5.87%     80.17% |         478      5.15%     85.31% |         213      2.29%     87.61% |         306      3.29%     90.90% |         303      3.26%     94.16% |         325      3.50%     97.66% |         217      2.34%    100.00%
system.ruby.L1Cache_Controller.M_W.Ack::total         9288                      
system.ruby.L1Cache_Controller.M_W.All_acks_no_sharers |       49671     11.89%     11.89% |       49494     11.84%     23.73% |       24431      5.85%     29.58% |       32483      7.77%     37.35% |       57181     13.68%     51.04% |         364      0.09%     51.12% |         364      0.09%     51.21% |       16908      4.05%     55.26% |       41629      9.96%     65.22% |        9519      2.28%     67.50% |       33023      7.90%     75.40% |       41395      9.91%     85.31% |        9519      2.28%     87.58% |        9519      2.28%     89.86% |       17159      4.11%     93.97% |       25205      6.03%    100.00%
system.ruby.L1Cache_Controller.M_W.All_acks_no_sharers::total       417864                      
system.ruby.L1Cache_Controller.MM_W.Store |           0      0.00%      0.00% |           0      0.00%      0.00% |           0      0.00%      0.00% |           0      0.00%      0.00% |           1     16.67%     16.67% |           0      0.00%     16.67% |           0      0.00%     16.67% |           0      0.00%     16.67% |           1     16.67%     33.33% |           0      0.00%     33.33% |           0      0.00%     33.33% |           1     16.67%     50.00% |           0      0.00%     50.00% |           0      0.00%     50.00% |           3     50.00%    100.00% |           0      0.00%    100.00%
system.ruby.L1Cache_Controller.MM_W.Store::total            6                      
system.ruby.L1Cache_Controller.MM_W.Ack  |         233      4.82%      4.82% |         205      4.24%      9.06% |         184      3.80%     12.86% |         193      3.99%     16.85% |         241      4.98%     21.83% |        1431     29.58%     51.42% |        1344     27.79%     79.20% |         121      2.50%     81.70% |          88      1.82%     83.52% |         208      4.30%     87.82% |         157      3.25%     91.07% |          65      1.34%     92.41% |         103      2.13%     94.54% |         118      2.44%     96.98% |          93      1.92%     98.90% |          53      1.10%    100.00%
system.ruby.L1Cache_Controller.MM_W.Ack::total         4837                      
system.ruby.L1Cache_Controller.MM_W.All_acks_no_sharers |       10613      8.54%      8.54% |        2471      1.99%     10.53% |       10118      8.14%     18.68% |       10241      8.24%     26.92% |        2493      2.01%     28.93% |         525      0.42%     29.35% |         525      0.42%     29.77% |       10376      8.35%     38.12% |       11064      8.91%     47.03% |        2545      2.05%     49.08% |       10568      8.51%     57.58% |       11000      8.85%     66.44% |       10437      8.40%     74.84% |       10337      8.32%     83.16% |       10400      8.37%     91.53% |       10523      8.47%    100.00%
system.ruby.L1Cache_Controller.MM_W.All_acks_no_sharers::total       124236                      
system.ruby.L1Cache_Controller.IS.Ack    |      744318     11.90%     11.90% |      741633     11.85%     23.75% |      365839      5.85%     29.60% |      486545      7.78%     37.37% |      856914     13.70%     51.07% |        3577      0.06%     51.12% |        3672      0.06%     51.18% |      253175      4.05%     55.23% |      624124      9.97%     65.20% |      142168      2.27%     67.48% |      494800      7.91%     75.38% |      620650      9.92%     85.30% |      142416      2.28%     87.58% |      142416      2.28%     89.85% |      256997      4.11%     93.96% |      377797      6.04%    100.00%
system.ruby.L1Cache_Controller.IS.Ack::total      6257041                      
system.ruby.L1Cache_Controller.IS.Shared_Data |           1      7.14%      7.14% |           1      7.14%     14.29% |           1      7.14%     21.43% |           1      7.14%     28.57% |           1      7.14%     35.71% |           0      0.00%     35.71% |           0      0.00%     35.71% |           1      7.14%     42.86% |           1      7.14%     50.00% |           1      7.14%     57.14% |           1      7.14%     64.29% |           1      7.14%     71.43% |           1      7.14%     78.57% |           1      7.14%     85.71% |           1      7.14%     92.86% |           1      7.14%    100.00%
system.ruby.L1Cache_Controller.IS.Shared_Data::total           14                      
system.ruby.L1Cache_Controller.IS.Exclusive_Data |       49671     11.89%     11.89% |       49494     11.84%     23.73% |       24431      5.85%     29.58% |       32483      7.77%     37.35% |       57182     13.68%     51.04% |         364      0.09%     51.12% |         364      0.09%     51.21% |       16908      4.05%     55.26% |       41631      9.96%     65.22% |        9519      2.28%     67.50% |       33023      7.90%     75.40% |       41395      9.91%     85.31% |        9519      2.28%     87.58% |        9519      2.28%     89.86% |       17159      4.11%     93.97% |       25205      6.03%    100.00%
system.ruby.L1Cache_Controller.IS.Exclusive_Data::total       417867                      
system.ruby.L1Cache_Controller.SS.Ack    |           9     10.47%     10.47% |          10     11.63%     22.09% |           9     10.47%     32.56% |           9     10.47%     43.02% |          10     11.63%     54.65% |           0      0.00%     54.65% |           0      0.00%     54.65% |           7      8.14%     62.79% |           5      5.81%     68.60% |          11     12.79%     81.40% |           6      6.98%     88.37% |           1      1.16%     89.53% |           2      2.33%     91.86% |           5      5.81%     97.67% |           2      2.33%    100.00% |           0      0.00%    100.00%
system.ruby.L1Cache_Controller.SS.Ack::total           86                      
system.ruby.L1Cache_Controller.SS.All_acks |           1      7.14%      7.14% |           1      7.14%     14.29% |           1      7.14%     21.43% |           1      7.14%     28.57% |           1      7.14%     35.71% |           0      0.00%     35.71% |           0      0.00%     35.71% |           1      7.14%     42.86% |           1      7.14%     50.00% |           1      7.14%     57.14% |           1      7.14%     64.29% |           1      7.14%     71.43% |           1      7.14%     78.57% |           1      7.14%     85.71% |           1      7.14%     92.86% |           1      7.14%    100.00%
system.ruby.L1Cache_Controller.SS.All_acks::total           14                      
system.ruby.L1Cache_Controller.MI.Load   |           3      5.08%      5.08% |          14     23.73%     28.81% |           1      1.69%     30.51% |          10     16.95%     47.46% |           8     13.56%     61.02% |           0      0.00%     61.02% |           0      0.00%     61.02% |           0      0.00%     61.02% |           8     13.56%     74.58% |           0      0.00%     74.58% |           3      5.08%     79.66% |           8     13.56%     93.22% |           0      0.00%     93.22% |           0      0.00%     93.22% |           2      3.39%     96.61% |           2      3.39%    100.00%
system.ruby.L1Cache_Controller.MI.Load::total           59                      
system.ruby.L1Cache_Controller.MI.Ifetch |           0      0.00%      0.00% |           0      0.00%      0.00% |           0      0.00%      0.00% |           0      0.00%      0.00% |           0      0.00%      0.00% |           0      0.00%      0.00% |           0      0.00%      0.00% |           0      0.00%      0.00% |           0      0.00%      0.00% |           0      0.00%      0.00% |           0      0.00%      0.00% |           1    100.00%    100.00% |           0      0.00%    100.00% |           0      0.00%    100.00% |           0      0.00%    100.00% |           0      0.00%    100.00%
system.ruby.L1Cache_Controller.MI.Ifetch::total            1                      
system.ruby.L1Cache_Controller.MI.Store  |           0      0.00%      0.00% |           0      0.00%      0.00% |           0      0.00%      0.00% |           0      0.00%      0.00% |           0      0.00%      0.00% |           0      0.00%      0.00% |           0      0.00%      0.00% |           0      0.00%      0.00% |           1     25.00%     25.00% |           0      0.00%     25.00% |           1     25.00%     50.00% |           2     50.00%    100.00% |           0      0.00%    100.00% |           0      0.00%    100.00% |           0      0.00%    100.00% |           0      0.00%    100.00%
system.ruby.L1Cache_Controller.MI.Store::total            4                      
system.ruby.L1Cache_Controller.MI.Writeback_Ack |       25962     19.98%     19.98% |       17780     13.69%     33.67% |        2351      1.81%     35.48% |        8653      6.66%     42.14% |       25465     19.60%     61.74% |           0      0.00%     61.74% |           0      0.00%     61.74% |         250      0.19%     61.93% |       18405     14.17%     76.10% |           0      0.00%     76.10% |        9431      7.26%     83.36% |       18124     13.95%     97.31% |           4      0.00%     97.32% |           4      0.00%     97.32% |         410      0.32%     97.63% |        3074      2.37%    100.00%
system.ruby.L1Cache_Controller.MI.Writeback_Ack::total       129913                      
system.ruby.L1Cache_Controller.MT.Load   |           0      0.00%      0.00% |           0      0.00%      0.00% |           1    100.00%    100.00% |           0      0.00%    100.00% |           0      0.00%    100.00% |           0      0.00%    100.00% |           0      0.00%    100.00% |           0      0.00%    100.00% |           0      0.00%    100.00% |           0      0.00%    100.00% |           0      0.00%    100.00% |           0      0.00%    100.00% |           0      0.00%    100.00% |           0      0.00%    100.00% |           0      0.00%    100.00% |           0      0.00%    100.00%
system.ruby.L1Cache_Controller.MT.Load::total            1                      
system.ruby.L1Cache_Controller.MT.Complete_L2_to_L1 |        4355      7.44%      7.44% |        4509      7.70%     15.14% |        4244      7.25%     22.39% |        4331      7.40%     29.79% |        4594      7.85%     37.64% |           0      0.00%     37.64% |           0      0.00%     37.64% |        3638      6.22%     43.86% |        3466      5.92%     49.78% |        3583      6.12%     55.90% |        3831      6.55%     62.45% |        4439      7.58%     70.03% |        4995      8.53%     78.56% |        4463      7.62%     86.19% |        3586      6.13%     92.32% |        4498      7.68%    100.00%
system.ruby.L1Cache_Controller.MT.Complete_L2_to_L1::total        58532                      
system.ruby.L1Cache_Controller.MMT.Complete_L2_to_L1 |        2619      6.97%      6.97% |        2056      5.47%     12.44% |        3080      8.19%     20.63% |        2489      6.62%     27.25% |        6504     17.30%     44.55% |           0      0.00%     44.55% |           0      0.00%     44.55% |        2498      6.64%     51.19% |        2470      6.57%     57.76% |        1614      4.29%     62.06% |        2700      7.18%     69.24% |        2486      6.61%     75.85% |        2528      6.72%     82.58% |        1649      4.39%     86.96% |        2292      6.10%     93.06% |        2609      6.94%    100.00%
system.ruby.L1Cache_Controller.MMT.Complete_L2_to_L1::total        37594                      

---------- End Simulation Statistics   ----------
