
---------- Begin Simulation Statistics ----------
sim_seconds                                  0.015949                       # Number of seconds simulated
sim_ticks                                 15948538500                       # Number of ticks simulated
final_tick                                15948538500                       # Number of ticks from beginning of simulation (restored from checkpoints and never reset)
sim_freq                                 1000000000000                       # Frequency of simulated ticks
host_inst_rate                                  56122                       # Simulator instruction rate (inst/s)
host_op_rate                                    97331                       # Simulator op (including micro ops) rate (op/s)
host_tick_rate                               19257603                       # Simulator tick rate (ticks/s)
host_mem_usage                                2044232                       # Number of bytes of host memory used
host_seconds                                   828.17                       # Real time elapsed on the host
sim_insts                                    46478684                       # Number of instructions simulated
sim_ops                                      80606617                       # Number of ops (including micro ops) simulated
system.voltage_domain.voltage                       1                       # Voltage in Volts
system.clk_domain.clock                          1000                       # Clock period in ticks
system.mem_ctrls0.pwrStateResidencyTicks::UNDEFINED  15948538500                       # Cumulative time (in ticks) in various power states
system.mem_ctrls0.bytes_read::ruby.dir_cntrl0     10586432                       # Number of bytes read from this memory
system.mem_ctrls0.bytes_read::total          10586432                       # Number of bytes read from this memory
system.mem_ctrls0.bytes_written::ruby.dir_cntrl0      1277952                       # Number of bytes written to this memory
system.mem_ctrls0.bytes_written::total        1277952                       # Number of bytes written to this memory
system.mem_ctrls0.num_reads::ruby.dir_cntrl0       165413                       # Number of read requests responded to by this memory
system.mem_ctrls0.num_reads::total             165413                       # Number of read requests responded to by this memory
system.mem_ctrls0.num_writes::ruby.dir_cntrl0        19968                       # Number of write requests responded to by this memory
system.mem_ctrls0.num_writes::total             19968                       # Number of write requests responded to by this memory
system.mem_ctrls0.bw_read::ruby.dir_cntrl0    663786967                       # Total read bandwidth from this memory (bytes/s)
system.mem_ctrls0.bw_read::total            663786967                       # Total read bandwidth from this memory (bytes/s)
system.mem_ctrls0.bw_write::ruby.dir_cntrl0     80129725                       # Write bandwidth from this memory (bytes/s)
system.mem_ctrls0.bw_write::total            80129725                       # Write bandwidth from this memory (bytes/s)
system.mem_ctrls0.bw_total::ruby.dir_cntrl0    743916692                       # Total bandwidth to/from this memory (bytes/s)
system.mem_ctrls0.bw_total::total           743916692                       # Total bandwidth to/from this memory (bytes/s)
system.mem_ctrls0.readReqs                     165413                       # Number of read requests accepted
system.mem_ctrls0.avgNetLat                      0.00                       # Average network latency to DRAM controller
system.mem_ctrls0.writeReqs                     19968                       # Number of write requests accepted
system.mem_ctrls0.readBursts                   165413                       # Number of DRAM read bursts, including those serviced by the write queue
system.mem_ctrls0.writeBursts                   19968                       # Number of DRAM write bursts, including those merged in the write queue
system.mem_ctrls0.bytesReadDRAM              10585920                       # Total number of bytes read from DRAM
system.mem_ctrls0.bytesReadWrQ                    512                       # Total number of bytes read from write queue
system.mem_ctrls0.bytesWritten                1276160                       # Total number of bytes written to DRAM
system.mem_ctrls0.bytesReadSys               10586432                       # Total read bytes from the system interface side
system.mem_ctrls0.bytesWrittenSys             1277952                       # Total written bytes from the system interface side
system.mem_ctrls0.servicedByWrQ                     8                       # Number of DRAM read bursts serviced by the write queue
system.mem_ctrls0.mergedWrBursts                    0                       # Number of DRAM write bursts merged with an existing one
system.mem_ctrls0.neitherReadNorWriteReqs            0                       # Number of requests that are neither read nor write
system.mem_ctrls0.perBankRdBursts::0            10649                       # Per bank write bursts
system.mem_ctrls0.perBankRdBursts::1            10430                       # Per bank write bursts
system.mem_ctrls0.perBankRdBursts::2            10160                       # Per bank write bursts
system.mem_ctrls0.perBankRdBursts::3             9984                       # Per bank write bursts
system.mem_ctrls0.perBankRdBursts::4             9784                       # Per bank write bursts
system.mem_ctrls0.perBankRdBursts::5             9528                       # Per bank write bursts
system.mem_ctrls0.perBankRdBursts::6             9846                       # Per bank write bursts
system.mem_ctrls0.perBankRdBursts::7             9934                       # Per bank write bursts
system.mem_ctrls0.perBankRdBursts::8             9903                       # Per bank write bursts
system.mem_ctrls0.perBankRdBursts::9            10370                       # Per bank write bursts
system.mem_ctrls0.perBankRdBursts::10           10923                       # Per bank write bursts
system.mem_ctrls0.perBankRdBursts::11           10819                       # Per bank write bursts
system.mem_ctrls0.perBankRdBursts::12           11135                       # Per bank write bursts
system.mem_ctrls0.perBankRdBursts::13           11149                       # Per bank write bursts
system.mem_ctrls0.perBankRdBursts::14           10442                       # Per bank write bursts
system.mem_ctrls0.perBankRdBursts::15           10349                       # Per bank write bursts
system.mem_ctrls0.perBankWrBursts::0             1359                       # Per bank write bursts
system.mem_ctrls0.perBankWrBursts::1             1202                       # Per bank write bursts
system.mem_ctrls0.perBankWrBursts::2             1203                       # Per bank write bursts
system.mem_ctrls0.perBankWrBursts::3             1288                       # Per bank write bursts
system.mem_ctrls0.perBankWrBursts::4             1212                       # Per bank write bursts
system.mem_ctrls0.perBankWrBursts::5              995                       # Per bank write bursts
system.mem_ctrls0.perBankWrBursts::6             1094                       # Per bank write bursts
system.mem_ctrls0.perBankWrBursts::7             1067                       # Per bank write bursts
system.mem_ctrls0.perBankWrBursts::8             1062                       # Per bank write bursts
system.mem_ctrls0.perBankWrBursts::9             1149                       # Per bank write bursts
system.mem_ctrls0.perBankWrBursts::10            1415                       # Per bank write bursts
system.mem_ctrls0.perBankWrBursts::11            1434                       # Per bank write bursts
system.mem_ctrls0.perBankWrBursts::12            1520                       # Per bank write bursts
system.mem_ctrls0.perBankWrBursts::13            1429                       # Per bank write bursts
system.mem_ctrls0.perBankWrBursts::14            1228                       # Per bank write bursts
system.mem_ctrls0.perBankWrBursts::15            1283                       # Per bank write bursts
system.mem_ctrls0.numRdRetry                        0                       # Number of times read queue was full causing retry
system.mem_ctrls0.numWrRetry                        0                       # Number of times write queue was full causing retry
system.mem_ctrls0.totGap                  15947366500                       # Total gap between requests
system.mem_ctrls0.readPktSize::0                    0                       # Read request sizes (log2)
system.mem_ctrls0.readPktSize::1                    0                       # Read request sizes (log2)
system.mem_ctrls0.readPktSize::2                    0                       # Read request sizes (log2)
system.mem_ctrls0.readPktSize::3                    0                       # Read request sizes (log2)
system.mem_ctrls0.readPktSize::4                    0                       # Read request sizes (log2)
system.mem_ctrls0.readPktSize::5                    0                       # Read request sizes (log2)
system.mem_ctrls0.readPktSize::6               165413                       # Read request sizes (log2)
system.mem_ctrls0.writePktSize::0                   0                       # Write request sizes (log2)
system.mem_ctrls0.writePktSize::1                   0                       # Write request sizes (log2)
system.mem_ctrls0.writePktSize::2                   0                       # Write request sizes (log2)
system.mem_ctrls0.writePktSize::3                   0                       # Write request sizes (log2)
system.mem_ctrls0.writePktSize::4                   0                       # Write request sizes (log2)
system.mem_ctrls0.writePktSize::5                   0                       # Write request sizes (log2)
system.mem_ctrls0.writePktSize::6               19968                       # Write request sizes (log2)
system.mem_ctrls0.rdQLenPdf::0                  81957                       # What read queue length does an incoming req see
system.mem_ctrls0.rdQLenPdf::1                  43392                       # What read queue length does an incoming req see
system.mem_ctrls0.rdQLenPdf::2                  21670                       # What read queue length does an incoming req see
system.mem_ctrls0.rdQLenPdf::3                  10562                       # What read queue length does an incoming req see
system.mem_ctrls0.rdQLenPdf::4                   4804                       # What read queue length does an incoming req see
system.mem_ctrls0.rdQLenPdf::5                   1965                       # What read queue length does an incoming req see
system.mem_ctrls0.rdQLenPdf::6                    732                       # What read queue length does an incoming req see
system.mem_ctrls0.rdQLenPdf::7                    215                       # What read queue length does an incoming req see
system.mem_ctrls0.rdQLenPdf::8                     84                       # What read queue length does an incoming req see
system.mem_ctrls0.rdQLenPdf::9                     21                       # What read queue length does an incoming req see
system.mem_ctrls0.rdQLenPdf::10                     3                       # What read queue length does an incoming req see
system.mem_ctrls0.rdQLenPdf::11                     0                       # What read queue length does an incoming req see
system.mem_ctrls0.rdQLenPdf::12                     0                       # What read queue length does an incoming req see
system.mem_ctrls0.rdQLenPdf::13                     0                       # What read queue length does an incoming req see
system.mem_ctrls0.rdQLenPdf::14                     0                       # What read queue length does an incoming req see
system.mem_ctrls0.rdQLenPdf::15                     0                       # What read queue length does an incoming req see
system.mem_ctrls0.rdQLenPdf::16                     0                       # What read queue length does an incoming req see
system.mem_ctrls0.rdQLenPdf::17                     0                       # What read queue length does an incoming req see
system.mem_ctrls0.rdQLenPdf::18                     0                       # What read queue length does an incoming req see
system.mem_ctrls0.rdQLenPdf::19                     0                       # What read queue length does an incoming req see
system.mem_ctrls0.rdQLenPdf::20                     0                       # What read queue length does an incoming req see
system.mem_ctrls0.rdQLenPdf::21                     0                       # What read queue length does an incoming req see
system.mem_ctrls0.rdQLenPdf::22                     0                       # What read queue length does an incoming req see
system.mem_ctrls0.rdQLenPdf::23                     0                       # What read queue length does an incoming req see
system.mem_ctrls0.rdQLenPdf::24                     0                       # What read queue length does an incoming req see
system.mem_ctrls0.rdQLenPdf::25                     0                       # What read queue length does an incoming req see
system.mem_ctrls0.rdQLenPdf::26                     0                       # What read queue length does an incoming req see
system.mem_ctrls0.rdQLenPdf::27                     0                       # What read queue length does an incoming req see
system.mem_ctrls0.rdQLenPdf::28                     0                       # What read queue length does an incoming req see
system.mem_ctrls0.rdQLenPdf::29                     0                       # What read queue length does an incoming req see
system.mem_ctrls0.rdQLenPdf::30                     0                       # What read queue length does an incoming req see
system.mem_ctrls0.rdQLenPdf::31                     0                       # What read queue length does an incoming req see
system.mem_ctrls0.wrQLenPdf::0                      1                       # What write queue length does an incoming req see
system.mem_ctrls0.wrQLenPdf::1                      1                       # What write queue length does an incoming req see
system.mem_ctrls0.wrQLenPdf::2                      1                       # What write queue length does an incoming req see
system.mem_ctrls0.wrQLenPdf::3                      1                       # What write queue length does an incoming req see
system.mem_ctrls0.wrQLenPdf::4                      1                       # What write queue length does an incoming req see
system.mem_ctrls0.wrQLenPdf::5                      1                       # What write queue length does an incoming req see
system.mem_ctrls0.wrQLenPdf::6                      1                       # What write queue length does an incoming req see
system.mem_ctrls0.wrQLenPdf::7                      1                       # What write queue length does an incoming req see
system.mem_ctrls0.wrQLenPdf::8                      1                       # What write queue length does an incoming req see
system.mem_ctrls0.wrQLenPdf::9                      1                       # What write queue length does an incoming req see
system.mem_ctrls0.wrQLenPdf::10                     1                       # What write queue length does an incoming req see
system.mem_ctrls0.wrQLenPdf::11                     1                       # What write queue length does an incoming req see
system.mem_ctrls0.wrQLenPdf::12                     1                       # What write queue length does an incoming req see
system.mem_ctrls0.wrQLenPdf::13                     1                       # What write queue length does an incoming req see
system.mem_ctrls0.wrQLenPdf::14                     1                       # What write queue length does an incoming req see
system.mem_ctrls0.wrQLenPdf::15                   268                       # What write queue length does an incoming req see
system.mem_ctrls0.wrQLenPdf::16                   335                       # What write queue length does an incoming req see
system.mem_ctrls0.wrQLenPdf::17                   779                       # What write queue length does an incoming req see
system.mem_ctrls0.wrQLenPdf::18                  1125                       # What write queue length does an incoming req see
system.mem_ctrls0.wrQLenPdf::19                  1230                       # What write queue length does an incoming req see
system.mem_ctrls0.wrQLenPdf::20                  1263                       # What write queue length does an incoming req see
system.mem_ctrls0.wrQLenPdf::21                  1254                       # What write queue length does an incoming req see
system.mem_ctrls0.wrQLenPdf::22                  1260                       # What write queue length does an incoming req see
system.mem_ctrls0.wrQLenPdf::23                  1243                       # What write queue length does an incoming req see
system.mem_ctrls0.wrQLenPdf::24                  1250                       # What write queue length does an incoming req see
system.mem_ctrls0.wrQLenPdf::25                  1253                       # What write queue length does an incoming req see
system.mem_ctrls0.wrQLenPdf::26                  1236                       # What write queue length does an incoming req see
system.mem_ctrls0.wrQLenPdf::27                  1240                       # What write queue length does an incoming req see
system.mem_ctrls0.wrQLenPdf::28                  1239                       # What write queue length does an incoming req see
system.mem_ctrls0.wrQLenPdf::29                  1235                       # What write queue length does an incoming req see
system.mem_ctrls0.wrQLenPdf::30                  1227                       # What write queue length does an incoming req see
system.mem_ctrls0.wrQLenPdf::31                  1236                       # What write queue length does an incoming req see
system.mem_ctrls0.wrQLenPdf::32                  1238                       # What write queue length does an incoming req see
system.mem_ctrls0.wrQLenPdf::33                    38                       # What write queue length does an incoming req see
system.mem_ctrls0.wrQLenPdf::34                     4                       # What write queue length does an incoming req see
system.mem_ctrls0.wrQLenPdf::35                     0                       # What write queue length does an incoming req see
system.mem_ctrls0.wrQLenPdf::36                     0                       # What write queue length does an incoming req see
system.mem_ctrls0.wrQLenPdf::37                     0                       # What write queue length does an incoming req see
system.mem_ctrls0.wrQLenPdf::38                     0                       # What write queue length does an incoming req see
system.mem_ctrls0.wrQLenPdf::39                     0                       # What write queue length does an incoming req see
system.mem_ctrls0.wrQLenPdf::40                     0                       # What write queue length does an incoming req see
system.mem_ctrls0.wrQLenPdf::41                     0                       # What write queue length does an incoming req see
system.mem_ctrls0.wrQLenPdf::42                     0                       # What write queue length does an incoming req see
system.mem_ctrls0.wrQLenPdf::43                     0                       # What write queue length does an incoming req see
system.mem_ctrls0.wrQLenPdf::44                     0                       # What write queue length does an incoming req see
system.mem_ctrls0.wrQLenPdf::45                     0                       # What write queue length does an incoming req see
system.mem_ctrls0.wrQLenPdf::46                     0                       # What write queue length does an incoming req see
system.mem_ctrls0.wrQLenPdf::47                     0                       # What write queue length does an incoming req see
system.mem_ctrls0.wrQLenPdf::48                     0                       # What write queue length does an incoming req see
system.mem_ctrls0.wrQLenPdf::49                     0                       # What write queue length does an incoming req see
system.mem_ctrls0.wrQLenPdf::50                     0                       # What write queue length does an incoming req see
system.mem_ctrls0.wrQLenPdf::51                     0                       # What write queue length does an incoming req see
system.mem_ctrls0.wrQLenPdf::52                     0                       # What write queue length does an incoming req see
system.mem_ctrls0.wrQLenPdf::53                     0                       # What write queue length does an incoming req see
system.mem_ctrls0.wrQLenPdf::54                     0                       # What write queue length does an incoming req see
system.mem_ctrls0.wrQLenPdf::55                     0                       # What write queue length does an incoming req see
system.mem_ctrls0.wrQLenPdf::56                     0                       # What write queue length does an incoming req see
system.mem_ctrls0.wrQLenPdf::57                     0                       # What write queue length does an incoming req see
system.mem_ctrls0.wrQLenPdf::58                     0                       # What write queue length does an incoming req see
system.mem_ctrls0.wrQLenPdf::59                     0                       # What write queue length does an incoming req see
system.mem_ctrls0.wrQLenPdf::60                     0                       # What write queue length does an incoming req see
system.mem_ctrls0.wrQLenPdf::61                     0                       # What write queue length does an incoming req see
system.mem_ctrls0.wrQLenPdf::62                     0                       # What write queue length does an incoming req see
system.mem_ctrls0.wrQLenPdf::63                     0                       # What write queue length does an incoming req see
system.mem_ctrls0.bytesPerActivate::samples       100206                       # Bytes accessed per row activation
system.mem_ctrls0.bytesPerActivate::mean   118.370557                       # Bytes accessed per row activation
system.mem_ctrls0.bytesPerActivate::gmean    90.703374                       # Bytes accessed per row activation
system.mem_ctrls0.bytesPerActivate::stdev   124.762492                       # Bytes accessed per row activation
system.mem_ctrls0.bytesPerActivate::0-127        70080     69.94%     69.94% # Bytes accessed per row activation
system.mem_ctrls0.bytesPerActivate::128-255        18578     18.54%     88.48% # Bytes accessed per row activation
system.mem_ctrls0.bytesPerActivate::256-383         4951      4.94%     93.42% # Bytes accessed per row activation
system.mem_ctrls0.bytesPerActivate::384-511         3006      3.00%     96.42% # Bytes accessed per row activation
system.mem_ctrls0.bytesPerActivate::512-639         1871      1.87%     98.28% # Bytes accessed per row activation
system.mem_ctrls0.bytesPerActivate::640-767         1261      1.26%     99.54% # Bytes accessed per row activation
system.mem_ctrls0.bytesPerActivate::768-895          197      0.20%     99.74% # Bytes accessed per row activation
system.mem_ctrls0.bytesPerActivate::896-1023          146      0.15%     99.88% # Bytes accessed per row activation
system.mem_ctrls0.bytesPerActivate::1024-1151          116      0.12%    100.00% # Bytes accessed per row activation
system.mem_ctrls0.bytesPerActivate::total       100206                       # Bytes accessed per row activation
system.mem_ctrls0.rdPerTurnAround::samples         1207                       # Reads before turning the bus around for writes
system.mem_ctrls0.rdPerTurnAround::mean    137.021541                       # Reads before turning the bus around for writes
system.mem_ctrls0.rdPerTurnAround::gmean    52.921884                       # Reads before turning the bus around for writes
system.mem_ctrls0.rdPerTurnAround::stdev  1868.912370                       # Reads before turning the bus around for writes
system.mem_ctrls0.rdPerTurnAround::0-2047         1206     99.92%     99.92% # Reads before turning the bus around for writes
system.mem_ctrls0.rdPerTurnAround::63488-65535            1      0.08%    100.00% # Reads before turning the bus around for writes
system.mem_ctrls0.rdPerTurnAround::total         1207                       # Reads before turning the bus around for writes
system.mem_ctrls0.wrPerTurnAround::samples         1207                       # Writes before turning the bus around for reads
system.mem_ctrls0.wrPerTurnAround::mean     16.520298                       # Writes before turning the bus around for reads
system.mem_ctrls0.wrPerTurnAround::gmean    16.498588                       # Writes before turning the bus around for reads
system.mem_ctrls0.wrPerTurnAround::stdev     0.863510                       # Writes before turning the bus around for reads
system.mem_ctrls0.wrPerTurnAround::16             872     72.25%     72.25% # Writes before turning the bus around for reads
system.mem_ctrls0.wrPerTurnAround::17              48      3.98%     76.22% # Writes before turning the bus around for reads
system.mem_ctrls0.wrPerTurnAround::18             281     23.28%     99.50% # Writes before turning the bus around for reads
system.mem_ctrls0.wrPerTurnAround::19               6      0.50%    100.00% # Writes before turning the bus around for reads
system.mem_ctrls0.wrPerTurnAround::total         1207                       # Writes before turning the bus around for reads
system.mem_ctrls0.totQLat                  4536641500                       # Total ticks spent queuing
system.mem_ctrls0.totMemAccLat             7637985250                       # Total ticks spent from burst creation until serviced by the DRAM
system.mem_ctrls0.totBusLat                 827025000                       # Total ticks spent in databus transfers
system.mem_ctrls0.avgQLat                    27427.47                       # Average queueing delay per DRAM burst
system.mem_ctrls0.avgBusLat                   5000.00                       # Average bus latency per DRAM burst
system.mem_ctrls0.avgMemAccLat               46177.47                       # Average memory access latency per DRAM burst
system.mem_ctrls0.avgRdBW                      663.75                       # Average DRAM read bandwidth in MiByte/s
system.mem_ctrls0.avgWrBW                       80.02                       # Average achieved write bandwidth in MiByte/s
system.mem_ctrls0.avgRdBWSys                   663.79                       # Average system read bandwidth in MiByte/s
system.mem_ctrls0.avgWrBWSys                    80.13                       # Average system write bandwidth in MiByte/s
system.mem_ctrls0.peakBW                     12800.00                       # Theoretical peak bandwidth in MiByte/s
system.mem_ctrls0.busUtil                        5.81                       # Data bus utilization in percentage
system.mem_ctrls0.busUtilRead                    5.19                       # Data bus utilization in percentage for reads
system.mem_ctrls0.busUtilWrite                   0.63                       # Data bus utilization in percentage for writes
system.mem_ctrls0.avgRdQLen                      1.58                       # Average read queue length when enqueuing
system.mem_ctrls0.avgWrQLen                     13.21                       # Average write queue length when enqueuing
system.mem_ctrls0.readRowHits                   81362                       # Number of row buffer hits during reads
system.mem_ctrls0.writeRowHits                   3773                       # Number of row buffer hits during writes
system.mem_ctrls0.readRowHitRate                49.19                       # Row buffer hit rate for reads
system.mem_ctrls0.writeRowHitRate               18.90                       # Row buffer hit rate for writes
system.mem_ctrls0.avgGap                     86024.82                       # Average gap between requests
system.mem_ctrls0.pageHitRate                   45.93                       # Row buffer hit rate, read and write combined
system.mem_ctrls0_0.actEnergy               341270580                       # Energy for activate commands per rank (pJ)
system.mem_ctrls0_0.preEnergy               181378230                       # Energy for precharge commands per rank (pJ)
system.mem_ctrls0_0.readEnergy              573449100                       # Energy for read commands per rank (pJ)
system.mem_ctrls0_0.writeEnergy              49172400                       # Energy for write commands per rank (pJ)
system.mem_ctrls0_0.refreshEnergy        1239114240.000000                       # Energy for refresh commands per rank (pJ)
system.mem_ctrls0_0.actBackEnergy          1476640290                       # Energy for active background per rank (pJ)
system.mem_ctrls0_0.preBackEnergy            32547840                       # Energy for precharge background per rank (pJ)
system.mem_ctrls0_0.actPowerDownEnergy     5165308650                       # Energy for active power-down per rank (pJ)
system.mem_ctrls0_0.prePowerDownEnergy      314650560                       # Energy for precharge power-down per rank (pJ)
system.mem_ctrls0_0.selfRefreshEnergy       132646995                       # Energy for self refresh per rank (pJ)
system.mem_ctrls0_0.totalEnergy            9506458635                       # Total energy per rank (pJ)
system.mem_ctrls0_0.averagePower           596.070824                       # Core power per rank (mW)
system.mem_ctrls0_0.totalIdleTime         12624018250                       # Total Idle time Per DRAM Rank
system.mem_ctrls0_0.memoryStateTime::IDLE     19931000                       # Time in different power states
system.mem_ctrls0_0.memoryStateTime::REF    524388000                       # Time in different power states
system.mem_ctrls0_0.memoryStateTime::SREF    478080750                       # Time in different power states
system.mem_ctrls0_0.memoryStateTime::PRE_PDN    819198500                       # Time in different power states
system.mem_ctrls0_0.memoryStateTime::ACT   2778770000                       # Time in different power states
system.mem_ctrls0_0.memoryStateTime::ACT_PDN  11328170250                       # Time in different power states
system.mem_ctrls0_1.actEnergy               374228820                       # Energy for activate commands per rank (pJ)
system.mem_ctrls0_1.preEnergy               198903540                       # Energy for precharge commands per rank (pJ)
system.mem_ctrls0_1.readEnergy              607542600                       # Energy for read commands per rank (pJ)
system.mem_ctrls0_1.writeEnergy              54914400                       # Energy for write commands per rank (pJ)
system.mem_ctrls0_1.refreshEnergy        1244031360.000000                       # Energy for refresh commands per rank (pJ)
system.mem_ctrls0_1.actBackEnergy          1556256180                       # Energy for active background per rank (pJ)
system.mem_ctrls0_1.preBackEnergy            35624160                       # Energy for precharge background per rank (pJ)
system.mem_ctrls0_1.actPowerDownEnergy     5199657990                       # Energy for active power-down per rank (pJ)
system.mem_ctrls0_1.prePowerDownEnergy      250373280                       # Energy for precharge power-down per rank (pJ)
system.mem_ctrls0_1.selfRefreshEnergy       108706935                       # Energy for self refresh per rank (pJ)
system.mem_ctrls0_1.totalEnergy            9630468285                       # Total energy per rank (pJ)
system.mem_ctrls0_1.averagePower           603.846436                       # Core power per rank (mW)
system.mem_ctrls0_1.totalIdleTime         12441852250                       # Total Idle time Per DRAM Rank
system.mem_ctrls0_1.memoryStateTime::IDLE     26315000                       # Time in different power states
system.mem_ctrls0_1.memoryStateTime::REF    526462000                       # Time in different power states
system.mem_ctrls0_1.memoryStateTime::SREF    387643750                       # Time in different power states
system.mem_ctrls0_1.memoryStateTime::PRE_PDN    651793000                       # Time in different power states
system.mem_ctrls0_1.memoryStateTime::ACT   2952853500                       # Time in different power states
system.mem_ctrls0_1.memoryStateTime::ACT_PDN  11403471250                       # Time in different power states
system.mem_ctrls1.pwrStateResidencyTicks::UNDEFINED  15948538500                       # Cumulative time (in ticks) in various power states
system.mem_ctrls1.bytes_read::ruby.dir_cntrl1     10558080                       # Number of bytes read from this memory
system.mem_ctrls1.bytes_read::total          10558080                       # Number of bytes read from this memory
system.mem_ctrls1.bytes_written::ruby.dir_cntrl1      1272128                       # Number of bytes written to this memory
system.mem_ctrls1.bytes_written::total        1272128                       # Number of bytes written to this memory
system.mem_ctrls1.num_reads::ruby.dir_cntrl1       164970                       # Number of read requests responded to by this memory
system.mem_ctrls1.num_reads::total             164970                       # Number of read requests responded to by this memory
system.mem_ctrls1.num_writes::ruby.dir_cntrl1        19877                       # Number of write requests responded to by this memory
system.mem_ctrls1.num_writes::total             19877                       # Number of write requests responded to by this memory
system.mem_ctrls1.bw_read::ruby.dir_cntrl1    662009249                       # Total read bandwidth from this memory (bytes/s)
system.mem_ctrls1.bw_read::total            662009249                       # Total read bandwidth from this memory (bytes/s)
system.mem_ctrls1.bw_write::ruby.dir_cntrl1     79764550                       # Write bandwidth from this memory (bytes/s)
system.mem_ctrls1.bw_write::total            79764550                       # Write bandwidth from this memory (bytes/s)
system.mem_ctrls1.bw_total::ruby.dir_cntrl1    741773800                       # Total bandwidth to/from this memory (bytes/s)
system.mem_ctrls1.bw_total::total           741773800                       # Total bandwidth to/from this memory (bytes/s)
system.mem_ctrls1.readReqs                     164970                       # Number of read requests accepted
system.mem_ctrls1.avgNetLat                      0.00                       # Average network latency to DRAM controller
system.mem_ctrls1.writeReqs                     19877                       # Number of write requests accepted
system.mem_ctrls1.readBursts                   164970                       # Number of DRAM read bursts, including those serviced by the write queue
system.mem_ctrls1.writeBursts                   19877                       # Number of DRAM write bursts, including those merged in the write queue
system.mem_ctrls1.bytesReadDRAM              10557696                       # Total number of bytes read from DRAM
system.mem_ctrls1.bytesReadWrQ                    384                       # Total number of bytes read from write queue
system.mem_ctrls1.bytesWritten                1270400                       # Total number of bytes written to DRAM
system.mem_ctrls1.bytesReadSys               10558080                       # Total read bytes from the system interface side
system.mem_ctrls1.bytesWrittenSys             1272128                       # Total written bytes from the system interface side
system.mem_ctrls1.servicedByWrQ                     6                       # Number of DRAM read bursts serviced by the write queue
system.mem_ctrls1.mergedWrBursts                    0                       # Number of DRAM write bursts merged with an existing one
system.mem_ctrls1.neitherReadNorWriteReqs            0                       # Number of requests that are neither read nor write
system.mem_ctrls1.perBankRdBursts::0            10586                       # Per bank write bursts
system.mem_ctrls1.perBankRdBursts::1            10344                       # Per bank write bursts
system.mem_ctrls1.perBankRdBursts::2            10153                       # Per bank write bursts
system.mem_ctrls1.perBankRdBursts::3             9990                       # Per bank write bursts
system.mem_ctrls1.perBankRdBursts::4             9744                       # Per bank write bursts
system.mem_ctrls1.perBankRdBursts::5             9523                       # Per bank write bursts
system.mem_ctrls1.perBankRdBursts::6             9834                       # Per bank write bursts
system.mem_ctrls1.perBankRdBursts::7             9929                       # Per bank write bursts
system.mem_ctrls1.perBankRdBursts::8             9885                       # Per bank write bursts
system.mem_ctrls1.perBankRdBursts::9            10325                       # Per bank write bursts
system.mem_ctrls1.perBankRdBursts::10           10919                       # Per bank write bursts
system.mem_ctrls1.perBankRdBursts::11           10798                       # Per bank write bursts
system.mem_ctrls1.perBankRdBursts::12           11087                       # Per bank write bursts
system.mem_ctrls1.perBankRdBursts::13           11096                       # Per bank write bursts
system.mem_ctrls1.perBankRdBursts::14           10438                       # Per bank write bursts
system.mem_ctrls1.perBankRdBursts::15           10313                       # Per bank write bursts
system.mem_ctrls1.perBankWrBursts::0             1336                       # Per bank write bursts
system.mem_ctrls1.perBankWrBursts::1             1162                       # Per bank write bursts
system.mem_ctrls1.perBankWrBursts::2             1214                       # Per bank write bursts
system.mem_ctrls1.perBankWrBursts::3             1317                       # Per bank write bursts
system.mem_ctrls1.perBankWrBursts::4             1187                       # Per bank write bursts
system.mem_ctrls1.perBankWrBursts::5              990                       # Per bank write bursts
system.mem_ctrls1.perBankWrBursts::6             1107                       # Per bank write bursts
system.mem_ctrls1.perBankWrBursts::7             1058                       # Per bank write bursts
system.mem_ctrls1.perBankWrBursts::8             1050                       # Per bank write bursts
system.mem_ctrls1.perBankWrBursts::9             1147                       # Per bank write bursts
system.mem_ctrls1.perBankWrBursts::10            1431                       # Per bank write bursts
system.mem_ctrls1.perBankWrBursts::11            1439                       # Per bank write bursts
system.mem_ctrls1.perBankWrBursts::12            1506                       # Per bank write bursts
system.mem_ctrls1.perBankWrBursts::13            1410                       # Per bank write bursts
system.mem_ctrls1.perBankWrBursts::14            1233                       # Per bank write bursts
system.mem_ctrls1.perBankWrBursts::15            1263                       # Per bank write bursts
system.mem_ctrls1.numRdRetry                        0                       # Number of times read queue was full causing retry
system.mem_ctrls1.numWrRetry                        0                       # Number of times write queue was full causing retry
system.mem_ctrls1.totGap                  15947949000                       # Total gap between requests
system.mem_ctrls1.readPktSize::0                    0                       # Read request sizes (log2)
system.mem_ctrls1.readPktSize::1                    0                       # Read request sizes (log2)
system.mem_ctrls1.readPktSize::2                    0                       # Read request sizes (log2)
system.mem_ctrls1.readPktSize::3                    0                       # Read request sizes (log2)
system.mem_ctrls1.readPktSize::4                    0                       # Read request sizes (log2)
system.mem_ctrls1.readPktSize::5                    0                       # Read request sizes (log2)
system.mem_ctrls1.readPktSize::6               164970                       # Read request sizes (log2)
system.mem_ctrls1.writePktSize::0                   0                       # Write request sizes (log2)
system.mem_ctrls1.writePktSize::1                   0                       # Write request sizes (log2)
system.mem_ctrls1.writePktSize::2                   0                       # Write request sizes (log2)
system.mem_ctrls1.writePktSize::3                   0                       # Write request sizes (log2)
system.mem_ctrls1.writePktSize::4                   0                       # Write request sizes (log2)
system.mem_ctrls1.writePktSize::5                   0                       # Write request sizes (log2)
system.mem_ctrls1.writePktSize::6               19877                       # Write request sizes (log2)
system.mem_ctrls1.rdQLenPdf::0                  80616                       # What read queue length does an incoming req see
system.mem_ctrls1.rdQLenPdf::1                  43698                       # What read queue length does an incoming req see
system.mem_ctrls1.rdQLenPdf::2                  22052                       # What read queue length does an incoming req see
system.mem_ctrls1.rdQLenPdf::3                  10808                       # What read queue length does an incoming req see
system.mem_ctrls1.rdQLenPdf::4                   4750                       # What read queue length does an incoming req see
system.mem_ctrls1.rdQLenPdf::5                   1976                       # What read queue length does an incoming req see
system.mem_ctrls1.rdQLenPdf::6                    730                       # What read queue length does an incoming req see
system.mem_ctrls1.rdQLenPdf::7                    235                       # What read queue length does an incoming req see
system.mem_ctrls1.rdQLenPdf::8                     69                       # What read queue length does an incoming req see
system.mem_ctrls1.rdQLenPdf::9                     17                       # What read queue length does an incoming req see
system.mem_ctrls1.rdQLenPdf::10                    10                       # What read queue length does an incoming req see
system.mem_ctrls1.rdQLenPdf::11                     1                       # What read queue length does an incoming req see
system.mem_ctrls1.rdQLenPdf::12                     2                       # What read queue length does an incoming req see
system.mem_ctrls1.rdQLenPdf::13                     0                       # What read queue length does an incoming req see
system.mem_ctrls1.rdQLenPdf::14                     0                       # What read queue length does an incoming req see
system.mem_ctrls1.rdQLenPdf::15                     0                       # What read queue length does an incoming req see
system.mem_ctrls1.rdQLenPdf::16                     0                       # What read queue length does an incoming req see
system.mem_ctrls1.rdQLenPdf::17                     0                       # What read queue length does an incoming req see
system.mem_ctrls1.rdQLenPdf::18                     0                       # What read queue length does an incoming req see
system.mem_ctrls1.rdQLenPdf::19                     0                       # What read queue length does an incoming req see
system.mem_ctrls1.rdQLenPdf::20                     0                       # What read queue length does an incoming req see
system.mem_ctrls1.rdQLenPdf::21                     0                       # What read queue length does an incoming req see
system.mem_ctrls1.rdQLenPdf::22                     0                       # What read queue length does an incoming req see
system.mem_ctrls1.rdQLenPdf::23                     0                       # What read queue length does an incoming req see
system.mem_ctrls1.rdQLenPdf::24                     0                       # What read queue length does an incoming req see
system.mem_ctrls1.rdQLenPdf::25                     0                       # What read queue length does an incoming req see
system.mem_ctrls1.rdQLenPdf::26                     0                       # What read queue length does an incoming req see
system.mem_ctrls1.rdQLenPdf::27                     0                       # What read queue length does an incoming req see
system.mem_ctrls1.rdQLenPdf::28                     0                       # What read queue length does an incoming req see
system.mem_ctrls1.rdQLenPdf::29                     0                       # What read queue length does an incoming req see
system.mem_ctrls1.rdQLenPdf::30                     0                       # What read queue length does an incoming req see
system.mem_ctrls1.rdQLenPdf::31                     0                       # What read queue length does an incoming req see
system.mem_ctrls1.wrQLenPdf::0                      1                       # What write queue length does an incoming req see
system.mem_ctrls1.wrQLenPdf::1                      1                       # What write queue length does an incoming req see
system.mem_ctrls1.wrQLenPdf::2                      1                       # What write queue length does an incoming req see
system.mem_ctrls1.wrQLenPdf::3                      1                       # What write queue length does an incoming req see
system.mem_ctrls1.wrQLenPdf::4                      1                       # What write queue length does an incoming req see
system.mem_ctrls1.wrQLenPdf::5                      1                       # What write queue length does an incoming req see
system.mem_ctrls1.wrQLenPdf::6                      1                       # What write queue length does an incoming req see
system.mem_ctrls1.wrQLenPdf::7                      1                       # What write queue length does an incoming req see
system.mem_ctrls1.wrQLenPdf::8                      1                       # What write queue length does an incoming req see
system.mem_ctrls1.wrQLenPdf::9                      1                       # What write queue length does an incoming req see
system.mem_ctrls1.wrQLenPdf::10                     1                       # What write queue length does an incoming req see
system.mem_ctrls1.wrQLenPdf::11                     1                       # What write queue length does an incoming req see
system.mem_ctrls1.wrQLenPdf::12                     1                       # What write queue length does an incoming req see
system.mem_ctrls1.wrQLenPdf::13                     1                       # What write queue length does an incoming req see
system.mem_ctrls1.wrQLenPdf::14                     1                       # What write queue length does an incoming req see
system.mem_ctrls1.wrQLenPdf::15                   266                       # What write queue length does an incoming req see
system.mem_ctrls1.wrQLenPdf::16                   324                       # What write queue length does an incoming req see
system.mem_ctrls1.wrQLenPdf::17                   770                       # What write queue length does an incoming req see
system.mem_ctrls1.wrQLenPdf::18                  1123                       # What write queue length does an incoming req see
system.mem_ctrls1.wrQLenPdf::19                  1255                       # What write queue length does an incoming req see
system.mem_ctrls1.wrQLenPdf::20                  1242                       # What write queue length does an incoming req see
system.mem_ctrls1.wrQLenPdf::21                  1238                       # What write queue length does an incoming req see
system.mem_ctrls1.wrQLenPdf::22                  1236                       # What write queue length does an incoming req see
system.mem_ctrls1.wrQLenPdf::23                  1253                       # What write queue length does an incoming req see
system.mem_ctrls1.wrQLenPdf::24                  1242                       # What write queue length does an incoming req see
system.mem_ctrls1.wrQLenPdf::25                  1248                       # What write queue length does an incoming req see
system.mem_ctrls1.wrQLenPdf::26                  1242                       # What write queue length does an incoming req see
system.mem_ctrls1.wrQLenPdf::27                  1225                       # What write queue length does an incoming req see
system.mem_ctrls1.wrQLenPdf::28                  1240                       # What write queue length does an incoming req see
system.mem_ctrls1.wrQLenPdf::29                  1226                       # What write queue length does an incoming req see
system.mem_ctrls1.wrQLenPdf::30                  1235                       # What write queue length does an incoming req see
system.mem_ctrls1.wrQLenPdf::31                  1227                       # What write queue length does an incoming req see
system.mem_ctrls1.wrQLenPdf::32                  1236                       # What write queue length does an incoming req see
system.mem_ctrls1.wrQLenPdf::33                    29                       # What write queue length does an incoming req see
system.mem_ctrls1.wrQLenPdf::34                     5                       # What write queue length does an incoming req see
system.mem_ctrls1.wrQLenPdf::35                     0                       # What write queue length does an incoming req see
system.mem_ctrls1.wrQLenPdf::36                     0                       # What write queue length does an incoming req see
system.mem_ctrls1.wrQLenPdf::37                     0                       # What write queue length does an incoming req see
system.mem_ctrls1.wrQLenPdf::38                     0                       # What write queue length does an incoming req see
system.mem_ctrls1.wrQLenPdf::39                     0                       # What write queue length does an incoming req see
system.mem_ctrls1.wrQLenPdf::40                     0                       # What write queue length does an incoming req see
system.mem_ctrls1.wrQLenPdf::41                     0                       # What write queue length does an incoming req see
system.mem_ctrls1.wrQLenPdf::42                     0                       # What write queue length does an incoming req see
system.mem_ctrls1.wrQLenPdf::43                     0                       # What write queue length does an incoming req see
system.mem_ctrls1.wrQLenPdf::44                     0                       # What write queue length does an incoming req see
system.mem_ctrls1.wrQLenPdf::45                     0                       # What write queue length does an incoming req see
system.mem_ctrls1.wrQLenPdf::46                     0                       # What write queue length does an incoming req see
system.mem_ctrls1.wrQLenPdf::47                     0                       # What write queue length does an incoming req see
system.mem_ctrls1.wrQLenPdf::48                     0                       # What write queue length does an incoming req see
system.mem_ctrls1.wrQLenPdf::49                     0                       # What write queue length does an incoming req see
system.mem_ctrls1.wrQLenPdf::50                     0                       # What write queue length does an incoming req see
system.mem_ctrls1.wrQLenPdf::51                     0                       # What write queue length does an incoming req see
system.mem_ctrls1.wrQLenPdf::52                     0                       # What write queue length does an incoming req see
system.mem_ctrls1.wrQLenPdf::53                     0                       # What write queue length does an incoming req see
system.mem_ctrls1.wrQLenPdf::54                     0                       # What write queue length does an incoming req see
system.mem_ctrls1.wrQLenPdf::55                     0                       # What write queue length does an incoming req see
system.mem_ctrls1.wrQLenPdf::56                     0                       # What write queue length does an incoming req see
system.mem_ctrls1.wrQLenPdf::57                     0                       # What write queue length does an incoming req see
system.mem_ctrls1.wrQLenPdf::58                     0                       # What write queue length does an incoming req see
system.mem_ctrls1.wrQLenPdf::59                     0                       # What write queue length does an incoming req see
system.mem_ctrls1.wrQLenPdf::60                     0                       # What write queue length does an incoming req see
system.mem_ctrls1.wrQLenPdf::61                     0                       # What write queue length does an incoming req see
system.mem_ctrls1.wrQLenPdf::62                     0                       # What write queue length does an incoming req see
system.mem_ctrls1.wrQLenPdf::63                     0                       # What write queue length does an incoming req see
system.mem_ctrls1.bytesPerActivate::samples        99797                       # Bytes accessed per row activation
system.mem_ctrls1.bytesPerActivate::mean   118.514504                       # Bytes accessed per row activation
system.mem_ctrls1.bytesPerActivate::gmean    90.753697                       # Bytes accessed per row activation
system.mem_ctrls1.bytesPerActivate::stdev   124.993315                       # Bytes accessed per row activation
system.mem_ctrls1.bytesPerActivate::0-127        69772     69.91%     69.91% # Bytes accessed per row activation
system.mem_ctrls1.bytesPerActivate::128-255        18494     18.53%     88.45% # Bytes accessed per row activation
system.mem_ctrls1.bytesPerActivate::256-383         4918      4.93%     93.37% # Bytes accessed per row activation
system.mem_ctrls1.bytesPerActivate::384-511         3004      3.01%     96.38% # Bytes accessed per row activation
system.mem_ctrls1.bytesPerActivate::512-639         1832      1.84%     98.22% # Bytes accessed per row activation
system.mem_ctrls1.bytesPerActivate::640-767         1337      1.34%     99.56% # Bytes accessed per row activation
system.mem_ctrls1.bytesPerActivate::768-895          191      0.19%     99.75% # Bytes accessed per row activation
system.mem_ctrls1.bytesPerActivate::896-1023          129      0.13%     99.88% # Bytes accessed per row activation
system.mem_ctrls1.bytesPerActivate::1024-1151          120      0.12%    100.00% # Bytes accessed per row activation
system.mem_ctrls1.bytesPerActivate::total        99797                       # Bytes accessed per row activation
system.mem_ctrls1.rdPerTurnAround::samples         1202                       # Reads before turning the bus around for writes
system.mem_ctrls1.rdPerTurnAround::mean    137.224626                       # Reads before turning the bus around for writes
system.mem_ctrls1.rdPerTurnAround::gmean    52.795868                       # Reads before turning the bus around for writes
system.mem_ctrls1.rdPerTurnAround::stdev  1864.312600                       # Reads before turning the bus around for writes
system.mem_ctrls1.rdPerTurnAround::0-2047         1200     99.83%     99.83% # Reads before turning the bus around for writes
system.mem_ctrls1.rdPerTurnAround::2048-4095            1      0.08%     99.92% # Reads before turning the bus around for writes
system.mem_ctrls1.rdPerTurnAround::63488-65535            1      0.08%    100.00% # Reads before turning the bus around for writes
system.mem_ctrls1.rdPerTurnAround::total         1202                       # Reads before turning the bus around for writes
system.mem_ctrls1.wrPerTurnAround::samples         1202                       # Writes before turning the bus around for reads
system.mem_ctrls1.wrPerTurnAround::mean     16.514143                       # Writes before turning the bus around for reads
system.mem_ctrls1.wrPerTurnAround::gmean    16.492181                       # Writes before turning the bus around for reads
system.mem_ctrls1.wrPerTurnAround::stdev     0.869628                       # Writes before turning the bus around for reads
system.mem_ctrls1.wrPerTurnAround::16             875     72.80%     72.80% # Writes before turning the bus around for reads
system.mem_ctrls1.wrPerTurnAround::17              47      3.91%     76.71% # Writes before turning the bus around for reads
system.mem_ctrls1.wrPerTurnAround::18             271     22.55%     99.25% # Writes before turning the bus around for reads
system.mem_ctrls1.wrPerTurnAround::19               7      0.58%     99.83% # Writes before turning the bus around for reads
system.mem_ctrls1.wrPerTurnAround::20               2      0.17%    100.00% # Writes before turning the bus around for reads
system.mem_ctrls1.wrPerTurnAround::total         1202                       # Writes before turning the bus around for reads
system.mem_ctrls1.totQLat                  4478758750                       # Total ticks spent queuing
system.mem_ctrls1.totMemAccLat             7571833750                       # Total ticks spent from burst creation until serviced by the DRAM
system.mem_ctrls1.totBusLat                 824820000                       # Total ticks spent in databus transfers
system.mem_ctrls1.avgQLat                    27149.92                       # Average queueing delay per DRAM burst
system.mem_ctrls1.avgBusLat                   5000.00                       # Average bus latency per DRAM burst
system.mem_ctrls1.avgMemAccLat               45899.92                       # Average memory access latency per DRAM burst
system.mem_ctrls1.avgRdBW                      661.99                       # Average DRAM read bandwidth in MiByte/s
system.mem_ctrls1.avgWrBW                       79.66                       # Average achieved write bandwidth in MiByte/s
system.mem_ctrls1.avgRdBWSys                   662.01                       # Average system read bandwidth in MiByte/s
system.mem_ctrls1.avgWrBWSys                    79.76                       # Average system write bandwidth in MiByte/s
system.mem_ctrls1.peakBW                     12800.00                       # Theoretical peak bandwidth in MiByte/s
system.mem_ctrls1.busUtil                        5.79                       # Data bus utilization in percentage
system.mem_ctrls1.busUtilRead                    5.17                       # Data bus utilization in percentage for reads
system.mem_ctrls1.busUtilWrite                   0.62                       # Data bus utilization in percentage for writes
system.mem_ctrls1.avgRdQLen                      1.58                       # Average read queue length when enqueuing
system.mem_ctrls1.avgWrQLen                     13.12                       # Average write queue length when enqueuing
system.mem_ctrls1.readRowHits                   81180                       # Number of row buffer hits during reads
system.mem_ctrls1.writeRowHits                   3831                       # Number of row buffer hits during writes
system.mem_ctrls1.readRowHitRate                49.21                       # Row buffer hit rate for reads
system.mem_ctrls1.writeRowHitRate               19.27                       # Row buffer hit rate for writes
system.mem_ctrls1.avgGap                     86276.48                       # Average gap between requests
system.mem_ctrls1.pageHitRate                   45.99                       # Row buffer hit rate, read and write combined
system.mem_ctrls1_0.actEnergy               339621240                       # Energy for activate commands per rank (pJ)
system.mem_ctrls1_0.preEnergy               180497790                       # Energy for precharge commands per rank (pJ)
system.mem_ctrls1_0.readEnergy              571935420                       # Energy for read commands per rank (pJ)
system.mem_ctrls1_0.writeEnergy              48916620                       # Energy for write commands per rank (pJ)
system.mem_ctrls1_0.refreshEnergy        1242802080.000000                       # Energy for refresh commands per rank (pJ)
system.mem_ctrls1_0.actBackEnergy          1480679880                       # Energy for active background per rank (pJ)
system.mem_ctrls1_0.preBackEnergy            35977440                       # Energy for precharge background per rank (pJ)
system.mem_ctrls1_0.actPowerDownEnergy     5122926870                       # Energy for active power-down per rank (pJ)
system.mem_ctrls1_0.prePowerDownEnergy      338748960                       # Energy for precharge power-down per rank (pJ)
system.mem_ctrls1_0.selfRefreshEnergy       140098425                       # Energy for self refresh per rank (pJ)
system.mem_ctrls1_0.totalEnergy            9502664895                       # Total energy per rank (pJ)
system.mem_ctrls1_0.averagePower           595.832950                       # Core power per rank (mW)
system.mem_ctrls1_0.totalIdleTime         12605696500                       # Total Idle time Per DRAM Rank
system.mem_ctrls1_0.memoryStateTime::IDLE     29593250                       # Time in different power states
system.mem_ctrls1_0.memoryStateTime::REF    526002000                       # Time in different power states
system.mem_ctrls1_0.memoryStateTime::SREF    490077250                       # Time in different power states
system.mem_ctrls1_0.memoryStateTime::PRE_PDN    881944750                       # Time in different power states
system.mem_ctrls1_0.memoryStateTime::ACT   2786760500                       # Time in different power states
system.mem_ctrls1_0.memoryStateTime::ACT_PDN  11234160750                       # Time in different power states
system.mem_ctrls1_1.actEnergy               372972180                       # Energy for activate commands per rank (pJ)
system.mem_ctrls1_1.preEnergy               198231825                       # Energy for precharge commands per rank (pJ)
system.mem_ctrls1_1.readEnergy              605907540                       # Energy for read commands per rank (pJ)
system.mem_ctrls1_1.writeEnergy              54700380                       # Energy for write commands per rank (pJ)
system.mem_ctrls1_1.refreshEnergy        1243416720.000000                       # Energy for refresh commands per rank (pJ)
system.mem_ctrls1_1.actBackEnergy          1538858070                       # Energy for active background per rank (pJ)
system.mem_ctrls1_1.preBackEnergy            38361120                       # Energy for precharge background per rank (pJ)
system.mem_ctrls1_1.actPowerDownEnergy     5221954110                       # Energy for active power-down per rank (pJ)
system.mem_ctrls1_1.prePowerDownEnergy      239070720                       # Energy for precharge power-down per rank (pJ)
system.mem_ctrls1_1.selfRefreshEnergy       111628860                       # Energy for self refresh per rank (pJ)
system.mem_ctrls1_1.totalEnergy            9625700085                       # Total energy per rank (pJ)
system.mem_ctrls1_1.averagePower           603.547415                       # Core power per rank (mW)
system.mem_ctrls1_1.totalIdleTime         12472792250                       # Total Idle time Per DRAM Rank
system.mem_ctrls1_1.memoryStateTime::IDLE     33731000                       # Time in different power states
system.mem_ctrls1_1.memoryStateTime::REF    526178000                       # Time in different power states
system.mem_ctrls1_1.memoryStateTime::SREF    398386750                       # Time in different power states
system.mem_ctrls1_1.memoryStateTime::PRE_PDN    622378500                       # Time in different power states
system.mem_ctrls1_1.memoryStateTime::ACT   2915688750                       # Time in different power states
system.mem_ctrls1_1.memoryStateTime::ACT_PDN  11452175500                       # Time in different power states
system.mem_ctrls2.pwrStateResidencyTicks::UNDEFINED  15948538500                       # Cumulative time (in ticks) in various power states
system.mem_ctrls2.bytes_read::ruby.dir_cntrl2     10574400                       # Number of bytes read from this memory
system.mem_ctrls2.bytes_read::total          10574400                       # Number of bytes read from this memory
system.mem_ctrls2.bytes_written::ruby.dir_cntrl2      1276224                       # Number of bytes written to this memory
system.mem_ctrls2.bytes_written::total        1276224                       # Number of bytes written to this memory
system.mem_ctrls2.num_reads::ruby.dir_cntrl2       165225                       # Number of read requests responded to by this memory
system.mem_ctrls2.num_reads::total             165225                       # Number of read requests responded to by this memory
system.mem_ctrls2.num_writes::ruby.dir_cntrl2        19941                       # Number of write requests responded to by this memory
system.mem_ctrls2.num_writes::total             19941                       # Number of write requests responded to by this memory
system.mem_ctrls2.bw_read::ruby.dir_cntrl2    663032541                       # Total read bandwidth from this memory (bytes/s)
system.mem_ctrls2.bw_read::total            663032541                       # Total read bandwidth from this memory (bytes/s)
system.mem_ctrls2.bw_write::ruby.dir_cntrl2     80021376                       # Write bandwidth from this memory (bytes/s)
system.mem_ctrls2.bw_write::total            80021376                       # Write bandwidth from this memory (bytes/s)
system.mem_ctrls2.bw_total::ruby.dir_cntrl2    743053917                       # Total bandwidth to/from this memory (bytes/s)
system.mem_ctrls2.bw_total::total           743053917                       # Total bandwidth to/from this memory (bytes/s)
system.mem_ctrls2.readReqs                     165225                       # Number of read requests accepted
system.mem_ctrls2.avgNetLat                      0.00                       # Average network latency to DRAM controller
system.mem_ctrls2.writeReqs                     19941                       # Number of write requests accepted
system.mem_ctrls2.readBursts                   165225                       # Number of DRAM read bursts, including those serviced by the write queue
system.mem_ctrls2.writeBursts                   19941                       # Number of DRAM write bursts, including those merged in the write queue
system.mem_ctrls2.bytesReadDRAM              10573952                       # Total number of bytes read from DRAM
system.mem_ctrls2.bytesReadWrQ                    448                       # Total number of bytes read from write queue
system.mem_ctrls2.bytesWritten                1274624                       # Total number of bytes written to DRAM
system.mem_ctrls2.bytesReadSys               10574400                       # Total read bytes from the system interface side
system.mem_ctrls2.bytesWrittenSys             1276224                       # Total written bytes from the system interface side
system.mem_ctrls2.servicedByWrQ                     7                       # Number of DRAM read bursts serviced by the write queue
system.mem_ctrls2.mergedWrBursts                    0                       # Number of DRAM write bursts merged with an existing one
system.mem_ctrls2.neitherReadNorWriteReqs            0                       # Number of requests that are neither read nor write
system.mem_ctrls2.perBankRdBursts::0            10543                       # Per bank write bursts
system.mem_ctrls2.perBankRdBursts::1            10368                       # Per bank write bursts
system.mem_ctrls2.perBankRdBursts::2            10155                       # Per bank write bursts
system.mem_ctrls2.perBankRdBursts::3             9949                       # Per bank write bursts
system.mem_ctrls2.perBankRdBursts::4             9788                       # Per bank write bursts
system.mem_ctrls2.perBankRdBursts::5             9466                       # Per bank write bursts
system.mem_ctrls2.perBankRdBursts::6             9846                       # Per bank write bursts
system.mem_ctrls2.perBankRdBursts::7             9961                       # Per bank write bursts
system.mem_ctrls2.perBankRdBursts::8             9907                       # Per bank write bursts
system.mem_ctrls2.perBankRdBursts::9            10312                       # Per bank write bursts
system.mem_ctrls2.perBankRdBursts::10           10947                       # Per bank write bursts
system.mem_ctrls2.perBankRdBursts::11           10813                       # Per bank write bursts
system.mem_ctrls2.perBankRdBursts::12           11137                       # Per bank write bursts
system.mem_ctrls2.perBankRdBursts::13           11180                       # Per bank write bursts
system.mem_ctrls2.perBankRdBursts::14           10513                       # Per bank write bursts
system.mem_ctrls2.perBankRdBursts::15           10333                       # Per bank write bursts
system.mem_ctrls2.perBankWrBursts::0             1323                       # Per bank write bursts
system.mem_ctrls2.perBankWrBursts::1             1201                       # Per bank write bursts
system.mem_ctrls2.perBankWrBursts::2             1217                       # Per bank write bursts
system.mem_ctrls2.perBankWrBursts::3             1276                       # Per bank write bursts
system.mem_ctrls2.perBankWrBursts::4             1214                       # Per bank write bursts
system.mem_ctrls2.perBankWrBursts::5              975                       # Per bank write bursts
system.mem_ctrls2.perBankWrBursts::6             1093                       # Per bank write bursts
system.mem_ctrls2.perBankWrBursts::7             1045                       # Per bank write bursts
system.mem_ctrls2.perBankWrBursts::8             1061                       # Per bank write bursts
system.mem_ctrls2.perBankWrBursts::9             1118                       # Per bank write bursts
system.mem_ctrls2.perBankWrBursts::10            1425                       # Per bank write bursts
system.mem_ctrls2.perBankWrBursts::11            1447                       # Per bank write bursts
system.mem_ctrls2.perBankWrBursts::12            1525                       # Per bank write bursts
system.mem_ctrls2.perBankWrBursts::13            1479                       # Per bank write bursts
system.mem_ctrls2.perBankWrBursts::14            1249                       # Per bank write bursts
system.mem_ctrls2.perBankWrBursts::15            1268                       # Per bank write bursts
system.mem_ctrls2.numRdRetry                        0                       # Number of times read queue was full causing retry
system.mem_ctrls2.numWrRetry                        0                       # Number of times write queue was full causing retry
system.mem_ctrls2.totGap                  15947587000                       # Total gap between requests
system.mem_ctrls2.readPktSize::0                    0                       # Read request sizes (log2)
system.mem_ctrls2.readPktSize::1                    0                       # Read request sizes (log2)
system.mem_ctrls2.readPktSize::2                    0                       # Read request sizes (log2)
system.mem_ctrls2.readPktSize::3                    0                       # Read request sizes (log2)
system.mem_ctrls2.readPktSize::4                    0                       # Read request sizes (log2)
system.mem_ctrls2.readPktSize::5                    0                       # Read request sizes (log2)
system.mem_ctrls2.readPktSize::6               165225                       # Read request sizes (log2)
system.mem_ctrls2.writePktSize::0                   0                       # Write request sizes (log2)
system.mem_ctrls2.writePktSize::1                   0                       # Write request sizes (log2)
system.mem_ctrls2.writePktSize::2                   0                       # Write request sizes (log2)
system.mem_ctrls2.writePktSize::3                   0                       # Write request sizes (log2)
system.mem_ctrls2.writePktSize::4                   0                       # Write request sizes (log2)
system.mem_ctrls2.writePktSize::5                   0                       # Write request sizes (log2)
system.mem_ctrls2.writePktSize::6               19941                       # Write request sizes (log2)
system.mem_ctrls2.rdQLenPdf::0                  80772                       # What read queue length does an incoming req see
system.mem_ctrls2.rdQLenPdf::1                  43500                       # What read queue length does an incoming req see
system.mem_ctrls2.rdQLenPdf::2                  21899                       # What read queue length does an incoming req see
system.mem_ctrls2.rdQLenPdf::3                  10827                       # What read queue length does an incoming req see
system.mem_ctrls2.rdQLenPdf::4                   4998                       # What read queue length does an incoming req see
system.mem_ctrls2.rdQLenPdf::5                   2058                       # What read queue length does an incoming req see
system.mem_ctrls2.rdQLenPdf::6                    802                       # What read queue length does an incoming req see
system.mem_ctrls2.rdQLenPdf::7                    260                       # What read queue length does an incoming req see
system.mem_ctrls2.rdQLenPdf::8                     79                       # What read queue length does an incoming req see
system.mem_ctrls2.rdQLenPdf::9                     19                       # What read queue length does an incoming req see
system.mem_ctrls2.rdQLenPdf::10                     4                       # What read queue length does an incoming req see
system.mem_ctrls2.rdQLenPdf::11                     0                       # What read queue length does an incoming req see
system.mem_ctrls2.rdQLenPdf::12                     0                       # What read queue length does an incoming req see
system.mem_ctrls2.rdQLenPdf::13                     0                       # What read queue length does an incoming req see
system.mem_ctrls2.rdQLenPdf::14                     0                       # What read queue length does an incoming req see
system.mem_ctrls2.rdQLenPdf::15                     0                       # What read queue length does an incoming req see
system.mem_ctrls2.rdQLenPdf::16                     0                       # What read queue length does an incoming req see
system.mem_ctrls2.rdQLenPdf::17                     0                       # What read queue length does an incoming req see
system.mem_ctrls2.rdQLenPdf::18                     0                       # What read queue length does an incoming req see
system.mem_ctrls2.rdQLenPdf::19                     0                       # What read queue length does an incoming req see
system.mem_ctrls2.rdQLenPdf::20                     0                       # What read queue length does an incoming req see
system.mem_ctrls2.rdQLenPdf::21                     0                       # What read queue length does an incoming req see
system.mem_ctrls2.rdQLenPdf::22                     0                       # What read queue length does an incoming req see
system.mem_ctrls2.rdQLenPdf::23                     0                       # What read queue length does an incoming req see
system.mem_ctrls2.rdQLenPdf::24                     0                       # What read queue length does an incoming req see
system.mem_ctrls2.rdQLenPdf::25                     0                       # What read queue length does an incoming req see
system.mem_ctrls2.rdQLenPdf::26                     0                       # What read queue length does an incoming req see
system.mem_ctrls2.rdQLenPdf::27                     0                       # What read queue length does an incoming req see
system.mem_ctrls2.rdQLenPdf::28                     0                       # What read queue length does an incoming req see
system.mem_ctrls2.rdQLenPdf::29                     0                       # What read queue length does an incoming req see
system.mem_ctrls2.rdQLenPdf::30                     0                       # What read queue length does an incoming req see
system.mem_ctrls2.rdQLenPdf::31                     0                       # What read queue length does an incoming req see
system.mem_ctrls2.wrQLenPdf::0                      1                       # What write queue length does an incoming req see
system.mem_ctrls2.wrQLenPdf::1                      1                       # What write queue length does an incoming req see
system.mem_ctrls2.wrQLenPdf::2                      1                       # What write queue length does an incoming req see
system.mem_ctrls2.wrQLenPdf::3                      1                       # What write queue length does an incoming req see
system.mem_ctrls2.wrQLenPdf::4                      1                       # What write queue length does an incoming req see
system.mem_ctrls2.wrQLenPdf::5                      1                       # What write queue length does an incoming req see
system.mem_ctrls2.wrQLenPdf::6                      1                       # What write queue length does an incoming req see
system.mem_ctrls2.wrQLenPdf::7                      1                       # What write queue length does an incoming req see
system.mem_ctrls2.wrQLenPdf::8                      1                       # What write queue length does an incoming req see
system.mem_ctrls2.wrQLenPdf::9                      1                       # What write queue length does an incoming req see
system.mem_ctrls2.wrQLenPdf::10                     1                       # What write queue length does an incoming req see
system.mem_ctrls2.wrQLenPdf::11                     1                       # What write queue length does an incoming req see
system.mem_ctrls2.wrQLenPdf::12                     1                       # What write queue length does an incoming req see
system.mem_ctrls2.wrQLenPdf::13                     1                       # What write queue length does an incoming req see
system.mem_ctrls2.wrQLenPdf::14                     1                       # What write queue length does an incoming req see
system.mem_ctrls2.wrQLenPdf::15                   274                       # What write queue length does an incoming req see
system.mem_ctrls2.wrQLenPdf::16                   325                       # What write queue length does an incoming req see
system.mem_ctrls2.wrQLenPdf::17                   776                       # What write queue length does an incoming req see
system.mem_ctrls2.wrQLenPdf::18                  1124                       # What write queue length does an incoming req see
system.mem_ctrls2.wrQLenPdf::19                  1237                       # What write queue length does an incoming req see
system.mem_ctrls2.wrQLenPdf::20                  1261                       # What write queue length does an incoming req see
system.mem_ctrls2.wrQLenPdf::21                  1243                       # What write queue length does an incoming req see
system.mem_ctrls2.wrQLenPdf::22                  1261                       # What write queue length does an incoming req see
[...]
system.ruby.L2Cache_Controller.M.L1_GET_INSTR::total           56                      
system.ruby.L2Cache_Controller.M.L1_GETS |       10515      6.16%      6.16% |       10599      6.21%     12.37% |       10642      6.24%     18.61% |       10846      6.36%     24.97% |       10422      6.11%     31.08% |       10219      5.99%     37.06% |       10302      6.04%     43.10% |       10550      6.18%     49.29% |       10585      6.20%     55.49% |       10367      6.08%     61.56% |       10548      6.18%     67.75% |       11634      6.82%     74.56% |       10972      6.43%     80.99% |       11135      6.53%     87.52% |       11196      6.56%     94.08% |       10098      5.92%    100.00%
system.ruby.L2Cache_Controller.M.L1_GETS::total       170630                      
system.ruby.L2Cache_Controller.M.L1_GETX |        1319      6.28%      6.28% |        1391      6.62%     12.89% |        1390      6.61%     19.51% |        1344      6.39%     25.90% |        1341      6.38%     32.28% |        1257      5.98%     38.26% |        1221      5.81%     44.07% |        1377      6.55%     50.62% |        1271      6.05%     56.67% |        1329      6.32%     62.99% |        1313      6.25%     69.24% |        1295      6.16%     75.40% |        1276      6.07%     81.47% |        1201      5.71%     87.18% |        1316      6.26%     93.44% |        1378      6.56%    100.00%
system.ruby.L2Cache_Controller.M.L1_GETX::total        21019                      
system.ruby.L2Cache_Controller.M.L2_Replacement |        4964      6.29%      6.29% |        4933      6.26%     12.55% |        4847      6.15%     18.70% |        4922      6.24%     24.94% |        4847      6.15%     31.08% |        4929      6.25%     37.33% |        4938      6.26%     43.60% |        4940      6.26%     49.86% |        5006      6.35%     56.21% |        4788      6.07%     62.28% |        4928      6.25%     68.53% |        4902      6.22%     74.75% |        4943      6.27%     81.01% |        5015      6.36%     87.37% |        5030      6.38%     93.75% |        4928      6.25%    100.00%
system.ruby.L2Cache_Controller.M.L2_Replacement::total        78860                      
system.ruby.L2Cache_Controller.M.L2_Replacement_clean |        3554      6.23%      6.23% |        3485      6.11%     12.34% |        3391      5.94%     18.28% |        3610      6.33%     24.60% |        3454      6.05%     30.66% |        3536      6.20%     36.85% |        3559      6.24%     43.09% |        3597      6.30%     49.39% |        3648      6.39%     55.79% |        3500      6.13%     61.92% |        3596      6.30%     68.22% |        3593      6.30%     74.52% |        3704      6.49%     81.01% |        3642      6.38%     87.39% |        3563      6.24%     93.64% |        3631      6.36%    100.00%
system.ruby.L2Cache_Controller.M.L2_Replacement_clean::total        57063                      
system.ruby.L2Cache_Controller.MT.L1_GETS |          70      3.96%      3.96% |          70      3.96%      7.93% |          98      5.55%     13.48% |          98      5.55%     19.03% |          98      5.55%     24.58% |         140      7.93%     32.50% |         140      7.93%     40.43% |         140      7.93%     48.36% |         138      7.81%     56.17% |         138      7.81%     63.99% |         136      7.70%     71.69% |         136      7.70%     79.39% |         112      6.34%     85.73% |         112      6.34%     92.07% |          70      3.96%     96.04% |          70      3.96%    100.00%
system.ruby.L2Cache_Controller.MT.L1_GETS::total         1766                      
system.ruby.L2Cache_Controller.MT.L1_GETX |           0      0.00%      0.00% |           0      0.00%      0.00% |           0      0.00%      0.00% |           0      0.00%      0.00% |           0      0.00%      0.00% |           0      0.00%      0.00% |           0      0.00%      0.00% |           0      0.00%      0.00% |           1     16.67%     16.67% |           1     16.67%     33.33% |           2     33.33%     66.67% |           2     33.33%    100.00% |           0      0.00%    100.00% |           0      0.00%    100.00% |           0      0.00%    100.00% |           0      0.00%    100.00%
system.ruby.L2Cache_Controller.MT.L1_GETX::total            6                      
system.ruby.L2Cache_Controller.MT.L1_PUTX |       50898      6.24%      6.24% |       50888      6.23%     12.47% |       50714      6.21%     18.68% |       51253      6.28%     24.96% |       50564      6.20%     31.16% |       50473      6.18%     37.34% |       50631      6.20%     43.55% |       51035      6.25%     49.80% |       51077      6.26%     56.06% |       50579      6.20%     62.26% |       50906      6.24%     68.49% |       51979      6.37%     74.86% |       51498      6.31%     81.17% |       51569      6.32%     87.49% |       51564      6.32%     93.81% |       50544      6.19%    100.00%
system.ruby.L2Cache_Controller.MT.L1_PUTX::total       816172                      
system.ruby.L2Cache_Controller.MT.L2_Replacement |           8      6.90%      6.90% |           4      3.45%     10.34% |          13     11.21%     21.55% |           9      7.76%     29.31% |          14     12.07%     41.38% |          10      8.62%     50.00% |           7      6.03%     56.03% |           8      6.90%     62.93% |           7      6.03%     68.97% |           8      6.90%     75.86% |           6      5.17%     81.03% |           6      5.17%     86.21% |           6      5.17%     91.38% |           4      3.45%     94.83% |           5      4.31%     99.14% |           1      0.86%    100.00%
system.ruby.L2Cache_Controller.MT.L2_Replacement::total          116                      
system.ruby.L2Cache_Controller.MT.L2_Replacement_clean |          48      7.07%      7.07% |          37      5.45%     12.52% |          42      6.19%     18.70% |          43      6.33%     25.04% |          46      6.77%     31.81% |          43      6.33%     38.14% |          41      6.04%     44.18% |          43      6.33%     50.52% |          34      5.01%     55.52% |          49      7.22%     62.74% |          36      5.30%     68.04% |          40      5.89%     73.93% |          40      5.89%     79.82% |          50      7.36%     87.19% |          42      6.19%     93.37% |          45      6.63%    100.00%
system.ruby.L2Cache_Controller.MT.L2_Replacement_clean::total          679                      
system.ruby.L2Cache_Controller.M_I.L1_GET_INSTR |           0      0.00%      0.00% |           0      0.00%      0.00% |           1    100.00%    100.00% |           0      0.00%    100.00% |           0      0.00%    100.00% |           0      0.00%    100.00% |           0      0.00%    100.00% |           0      0.00%    100.00% |           0      0.00%    100.00% |           0      0.00%    100.00% |           0      0.00%    100.00% |           0      0.00%    100.00% |           0      0.00%    100.00% |           0      0.00%    100.00% |           0      0.00%    100.00% |           0      0.00%    100.00%
system.ruby.L2Cache_Controller.M_I.L1_GET_INSTR::total            1                      
system.ruby.L2Cache_Controller.M_I.Mem_Ack |        9283      6.27%      6.27% |        9136      6.17%     12.45% |        9075      6.13%     18.58% |        9237      6.24%     24.82% |        9076      6.13%     30.96% |        9271      6.27%     37.22% |        9274      6.27%     43.49% |        9299      6.28%     49.77% |        9473      6.40%     56.17% |        8947      6.05%     62.22% |        9196      6.21%     68.43% |        9233      6.24%     74.67% |        9343      6.31%     80.99% |        9397      6.35%     87.34% |        9431      6.37%     93.71% |        9306      6.29%    100.00%
system.ruby.L2Cache_Controller.M_I.Mem_Ack::total       147977                      
system.ruby.L2Cache_Controller.MT_I.L1_GETX |           0      0.00%      0.00% |           0      0.00%      0.00% |           0      0.00%      0.00% |           0      0.00%      0.00% |           1    100.00%    100.00% |           0      0.00%    100.00% |           0      0.00%    100.00% |           0      0.00%    100.00% |           0      0.00%    100.00% |           0      0.00%    100.00% |           0      0.00%    100.00% |           0      0.00%    100.00% |           0      0.00%    100.00% |           0      0.00%    100.00% |           0      0.00%    100.00% |           0      0.00%    100.00%
system.ruby.L2Cache_Controller.MT_I.L1_GETX::total            1                      
system.ruby.L2Cache_Controller.MT_I.WB_Data |           2      4.17%      4.17% |           2      4.17%      8.33% |           8     16.67%     25.00% |           4      8.33%     33.33% |           6     12.50%     45.83% |           4      8.33%     54.17% |           4      8.33%     62.50% |           4      8.33%     70.83% |           2      4.17%     75.00% |           4      8.33%     83.33% |           1      2.08%     85.42% |           3      6.25%     91.67% |           1      2.08%     93.75% |           1      2.08%     95.83% |           1      2.08%     97.92% |           1      2.08%    100.00%
system.ruby.L2Cache_Controller.MT_I.WB_Data::total           48                      
system.ruby.L2Cache_Controller.MT_I.Ack_all |           6      8.82%      8.82% |           2      2.94%     11.76% |           5      7.35%     19.12% |           5      7.35%     26.47% |           8     11.76%     38.24% |           6      8.82%     47.06% |           3      4.41%     51.47% |           4      5.88%     57.35% |           5      7.35%     64.71% |           4      5.88%     70.59% |           5      7.35%     77.94% |           3      4.41%     82.35% |           5      7.35%     89.71% |           3      4.41%     94.12% |           4      5.88%    100.00% |           0      0.00%    100.00%
system.ruby.L2Cache_Controller.MT_I.Ack_all::total           68                      
system.ruby.L2Cache_Controller.MCT_I.WB_Data |          44      6.89%      6.89% |          34      5.32%     12.21% |          42      6.57%     18.78% |          41      6.42%     25.20% |          43      6.73%     31.92% |          41      6.42%     38.34% |          39      6.10%     44.44% |          38      5.95%     50.39% |          31      4.85%     55.24% |          47      7.36%     62.60% |          32      5.01%     67.61% |          38      5.95%     73.55% |          36      5.63%     79.19% |          48      7.51%     86.70% |          40      6.26%     92.96% |          45      7.04%    100.00%
system.ruby.L2Cache_Controller.MCT_I.WB_Data::total          639                      
system.ruby.L2Cache_Controller.MCT_I.Ack_all |           4     10.00%     10.00% |           3      7.50%     17.50% |           0      0.00%     17.50% |           2      5.00%     22.50% |           3      7.50%     30.00% |           2      5.00%     35.00% |           2      5.00%     40.00% |           5     12.50%     52.50% |           3      7.50%     60.00% |           2      5.00%     65.00% |           4     10.00%     75.00% |           2      5.00%     80.00% |           4     10.00%     90.00% |           2      5.00%     95.00% |           2      5.00%    100.00% |           0      0.00%    100.00%
system.ruby.L2Cache_Controller.MCT_I.Ack_all::total           40                      
system.ruby.L2Cache_Controller.I_I.Ack_all |         705      6.30%      6.30% |         676      6.04%     12.33% |         778      6.95%     19.28% |         650      5.81%     25.09% |         713      6.37%     31.45% |         747      6.67%     38.13% |         725      6.47%     44.60% |         707      6.31%     50.92% |         770      6.88%     57.79% |         595      5.31%     63.11% |         626      5.59%     68.70% |         687      6.14%     74.83% |         645      5.76%     80.59% |         684      6.11%     86.70% |         789      7.05%     93.75% |         700      6.25%    100.00%
system.ruby.L2Cache_Controller.I_I.Ack_all::total        11197                      
system.ruby.L2Cache_Controller.S_I.Ack   |           4      6.45%      6.45% |           1      1.61%      8.06% |           4      6.45%     14.52% |           3      4.84%     19.35% |           2      3.23%     22.58% |           6      9.68%     32.26% |           4      6.45%     38.71% |           4      6.45%     45.16% |           8     12.90%     58.06% |           7     11.29%     69.35% |           4      6.45%     75.81% |           5      8.06%     83.87% |           5      8.06%     91.94% |           2      3.23%     95.16% |           2      3.23%     98.39% |           1      1.61%    100.00%
system.ruby.L2Cache_Controller.S_I.Ack::total           62                      
system.ruby.L2Cache_Controller.S_I.Ack_all |           4      6.45%      6.45% |           1      1.61%      8.06% |           4      6.45%     14.52% |           3      4.84%     19.35% |           2      3.23%     22.58% |           6      9.68%     32.26% |           4      6.45%     38.71% |           4      6.45%     45.16% |           8     12.90%     58.06% |           7     11.29%     69.35% |           4      6.45%     75.81% |           5      8.06%     83.87% |           5      8.06%     91.94% |           2      3.23%     95.16% |           2      3.23%     98.39% |           1      1.61%    100.00%
system.ruby.L2Cache_Controller.S_I.Ack_all::total           62                      
system.ruby.L2Cache_Controller.ISS.Mem_Data |       29336      6.26%      6.26% |       29078      6.21%     12.47% |       28828      6.16%     18.63% |       29258      6.25%     24.88% |       28997      6.19%     31.07% |       29224      6.24%     37.31% |       29338      6.26%     43.57% |       29330      6.26%     49.84% |       29474      6.29%     56.13% |       29180      6.23%     62.36% |       29312      6.26%     68.62% |       29339      6.27%     74.89% |       29532      6.31%     81.19% |       29481      6.30%     87.49% |       29286      6.25%     93.74% |       29306      6.26%    100.00%
system.ruby.L2Cache_Controller.ISS.Mem_Data::total       468299                      
system.ruby.L2Cache_Controller.IS.Mem_Data |        1366      6.39%      6.39% |        1366      6.39%     12.79% |        1512      7.08%     19.86% |        1305      6.11%     25.97% |        1363      6.38%     32.35% |        1349      6.31%     38.67% |        1293      6.05%     44.72% |        1302      6.09%     50.81% |        1375      6.44%     57.25% |        1172      5.49%     62.73% |        1256      5.88%     68.61% |        1278      5.98%     74.59% |        1236      5.79%     80.38% |        1311      6.14%     86.52% |        1526      7.14%     93.66% |        1355      6.34%    100.00%
system.ruby.L2Cache_Controller.IS.Mem_Data::total        21365                      
system.ruby.L2Cache_Controller.IM.Mem_Data |       10652      6.22%      6.22% |       10744      6.27%     12.50% |       10777      6.29%     18.79% |       10743      6.27%     25.06% |       10741      6.27%     31.34% |       10725      6.26%     37.60% |       10722      6.26%     43.86% |       10727      6.26%     50.13% |       10687      6.24%     56.37% |       10652      6.22%     62.59% |       10685      6.24%     68.83% |       10663      6.23%     75.05% |       10654      6.22%     81.28% |       10688      6.24%     87.52% |       10690      6.24%     93.76% |       10683      6.24%    100.00%
system.ruby.L2Cache_Controller.IM.Mem_Data::total       171233                      
system.ruby.L2Cache_Controller.SS_MB.Exclusive_Unblock |          42      3.92%      3.92% |          42      3.92%      7.84% |          69      6.44%     14.29% |          56      5.23%     19.51% |          56      5.23%     24.74% |          84      7.84%     32.59% |          84      7.84%     40.43% |          84      7.84%     48.27% |          83      7.75%     56.02% |          83      7.75%     63.77% |          82      7.66%     71.43% |          82      7.66%     79.08% |          70      6.54%     85.62% |          70      6.54%     92.16% |          42      3.92%     96.08% |          42      3.92%    100.00%
system.ruby.L2Cache_Controller.SS_MB.Exclusive_Unblock::total         1071                      
system.ruby.L2Cache_Controller.MT_MB.Exclusive_Unblock |       51822      6.23%      6.23% |       51812      6.23%     12.47% |       51637      6.21%     18.68% |       52191      6.28%     24.96% |       51501      6.20%     31.16% |       51425      6.19%     37.34% |       51583      6.21%     43.55% |       51984      6.25%     49.80% |       52018      6.26%     56.06% |       51529      6.20%     62.26% |       51860      6.24%     68.50% |       52933      6.37%     74.87% |       52434      6.31%     81.18% |       52505      6.32%     87.49% |       52488      6.31%     93.81% |       51465      6.19%    100.00%
system.ruby.L2Cache_Controller.MT_MB.Exclusive_Unblock::total       831187                      
system.ruby.L2Cache_Controller.MT_IIB.WB_Data |          69      3.93%      3.93% |          70      3.99%      7.92% |          98      5.58%     13.50% |          98      5.58%     19.08% |          97      5.52%     24.60% |         140      7.97%     32.57% |         137      7.80%     40.38% |         139      7.92%     48.29% |         137      7.80%     56.09% |         138      7.86%     63.95% |         135      7.69%     71.64% |         134      7.63%     79.27% |         112      6.38%     85.65% |         112      6.38%     92.03% |          70      3.99%     96.01% |          70      3.99%    100.00%
system.ruby.L2Cache_Controller.MT_IIB.WB_Data::total         1756                      
system.ruby.L2Cache_Controller.MT_IIB.Unblock |           1     10.00%     10.00% |           0      0.00%     10.00% |           0      0.00%     10.00% |           0      0.00%     10.00% |           1     10.00%     20.00% |           0      0.00%     20.00% |           3     30.00%     50.00% |           1     10.00%     60.00% |           1     10.00%     70.00% |           0      0.00%     70.00% |           1     10.00%     80.00% |           2     20.00%    100.00% |           0      0.00%    100.00% |           0      0.00%    100.00% |           0      0.00%    100.00% |           0      0.00%    100.00%
system.ruby.L2Cache_Controller.MT_IIB.Unblock::total           10                      
system.ruby.L2Cache_Controller.MT_IB.WB_Data |           1     10.00%     10.00% |           0      0.00%     10.00% |           0      0.00%     10.00% |           0      0.00%     10.00% |           1     10.00%     20.00% |           0      0.00%     20.00% |           3     30.00%     50.00% |           1     10.00%     60.00% |           1     10.00%     70.00% |           0      0.00%     70.00% |           1     10.00%     80.00% |           2     20.00%    100.00% |           0      0.00%    100.00% |           0      0.00%    100.00% |           0      0.00%    100.00% |           0      0.00%    100.00%
system.ruby.L2Cache_Controller.MT_IB.WB_Data::total           10                      
system.ruby.L2Cache_Controller.MT_SB.Unblock |          69      3.93%      3.93% |          70      3.99%      7.92% |          98      5.58%     13.50% |          98      5.58%     19.08% |          97      5.52%     24.60% |         140      7.97%     32.57% |         137      7.80%     40.38% |         139      7.92%     48.29% |         137      7.80%     56.09% |         138      7.86%     63.95% |         135      7.69%     71.64% |         134      7.63%     79.27% |         112      6.38%     85.65% |         112      6.38%     92.03% |          70      3.99%     96.01% |          70      3.99%    100.00%
system.ruby.L2Cache_Controller.MT_SB.Unblock::total         1756                      

---------- End Simulation Statistics   ----------
