
---------- Begin Simulation Statistics ----------
sim_seconds                                  0.023304                       # Number of seconds simulated
sim_ticks                                 23304411500                       # Number of ticks simulated
final_tick                                23304411500                       # Number of ticks from beginning of simulation (restored from checkpoints and never reset)
sim_freq                                 1000000000000                       # Frequency of simulated ticks
host_inst_rate                                  94784                       # Simulator instruction rate (inst/s)
host_op_rate                                   177689                       # Simulator op (including micro ops) rate (op/s)
host_tick_rate                               22401818                       # Simulator tick rate (ticks/s)
host_mem_usage                                1675596                       # Number of bytes of host memory used
host_seconds                                  1040.29                       # Real time elapsed on the host
sim_insts                                    98603456                       # Number of instructions simulated
sim_ops                                     184848332                       # Number of ops (including micro ops) simulated
system.voltage_domain.voltage                       1                       # Voltage in Volts
system.clk_domain.clock                          1000                       # Clock period in ticks
system.mem_ctrls0.pwrStateResidencyTicks::UNDEFINED  23304411500                       # Cumulative time (in ticks) in various power states
system.mem_ctrls0.bytes_read::ruby.dir_cntrl0      3496192                       # Number of bytes read from this memory
system.mem_ctrls0.bytes_read::total           3496192                       # Number of bytes read from this memory
system.mem_ctrls0.num_reads::ruby.dir_cntrl0        54628                       # Number of read requests responded to by this memory
system.mem_ctrls0.num_reads::total              54628                       # Number of read requests responded to by this memory
system.mem_ctrls0.bw_read::ruby.dir_cntrl0    150022754                       # Total read bandwidth from this memory (bytes/s)
system.mem_ctrls0.bw_read::total            150022754                       # Total read bandwidth from this memory (bytes/s)
system.mem_ctrls0.bw_total::ruby.dir_cntrl0    150022754                       # Total bandwidth to/from this memory (bytes/s)
system.mem_ctrls0.bw_total::total           150022754                       # Total bandwidth to/from this memory (bytes/s)
system.mem_ctrls0.readReqs                      54628                       # Number of read requests accepted
system.mem_ctrls0.avgNetLat                      0.00                       # Average network latency to DRAM controller
system.mem_ctrls0.writeReqs                         0                       # Number of write requests accepted
system.mem_ctrls0.readBursts                    54628                       # Number of DRAM read bursts, including those serviced by the write queue
system.mem_ctrls0.writeBursts                       0                       # Number of DRAM write bursts, including those merged in the write queue
system.mem_ctrls0.bytesReadDRAM               3496192                       # Total number of bytes read from DRAM
system.mem_ctrls0.bytesReadWrQ                      0                       # Total number of bytes read from write queue
system.mem_ctrls0.bytesWritten                      0                       # Total number of bytes written to DRAM
system.mem_ctrls0.bytesReadSys                3496192                       # Total read bytes from the system interface side
system.mem_ctrls0.bytesWrittenSys                   0                       # Total written bytes from the system interface side
system.mem_ctrls0.servicedByWrQ                     0                       # Number of DRAM read bursts serviced by the write queue
system.mem_ctrls0.mergedWrBursts                    0                       # Number of DRAM write bursts merged with an existing one
system.mem_ctrls0.neitherReadNorWriteReqs            0                       # Number of requests that are neither read nor write
system.mem_ctrls0.perBankRdBursts::0             3864                       # Per bank write bursts
system.mem_ctrls0.perBankRdBursts::1             3567                       # Per bank write bursts
system.mem_ctrls0.perBankRdBursts::2             3231                       # Per bank write bursts
system.mem_ctrls0.perBankRdBursts::3             3315                       # Per bank write bursts
system.mem_ctrls0.perBankRdBursts::4             3237                       # Per bank write bursts
system.mem_ctrls0.perBankRdBursts::5             3096                       # Per bank write bursts
system.mem_ctrls0.perBankRdBursts::6             3149                       # Per bank write bursts
system.mem_ctrls0.perBankRdBursts::7             3007                       # Per bank write bursts
system.mem_ctrls0.perBankRdBursts::8             3253                       # Per bank write bursts
system.mem_ctrls0.perBankRdBursts::9             3281                       # Per bank write bursts
system.mem_ctrls0.perBankRdBursts::10            3515                       # Per bank write bursts
system.mem_ctrls0.perBankRdBursts::11            3511                       # Per bank write bursts
system.mem_ctrls0.perBankRdBursts::12            3605                       # Per bank write bursts
system.mem_ctrls0.perBankRdBursts::13            3414                       # Per bank write bursts
system.mem_ctrls0.perBankRdBursts::14            3491                       # Per bank write bursts
system.mem_ctrls0.perBankRdBursts::15            4092                       # Per bank write bursts
system.mem_ctrls0.perBankWrBursts::0                0                       # Per bank write bursts
system.mem_ctrls0.perBankWrBursts::1                0                       # Per bank write bursts
system.mem_ctrls0.perBankWrBursts::2                0                       # Per bank write bursts
system.mem_ctrls0.perBankWrBursts::3                0                       # Per bank write bursts
system.mem_ctrls0.perBankWrBursts::4                0                       # Per bank write bursts
system.mem_ctrls0.perBankWrBursts::5                0                       # Per bank write bursts
system.mem_ctrls0.perBankWrBursts::6                0                       # Per bank write bursts
system.mem_ctrls0.perBankWrBursts::7                0                       # Per bank write bursts
system.mem_ctrls0.perBankWrBursts::8                0                       # Per bank write bursts
system.mem_ctrls0.perBankWrBursts::9                0                       # Per bank write bursts
system.mem_ctrls0.perBankWrBursts::10               0                       # Per bank write bursts
system.mem_ctrls0.perBankWrBursts::11               0                       # Per bank write bursts
system.mem_ctrls0.perBankWrBursts::12               0                       # Per bank write bursts
system.mem_ctrls0.perBankWrBursts::13               0                       # Per bank write bursts
system.mem_ctrls0.perBankWrBursts::14               0                       # Per bank write bursts
system.mem_ctrls0.perBankWrBursts::15               0                       # Per bank write bursts
system.mem_ctrls0.numRdRetry                        0                       # Number of times read queue was full causing retry
system.mem_ctrls0.numWrRetry                        0                       # Number of times write queue was full causing retry
system.mem_ctrls0.totGap                  23303363000                       # Total gap between requests
system.mem_ctrls0.readPktSize::0                    0                       # Read request sizes (log2)
system.mem_ctrls0.readPktSize::1                    0                       # Read request sizes (log2)
system.mem_ctrls0.readPktSize::2                    0                       # Read request sizes (log2)
system.mem_ctrls0.readPktSize::3                    0                       # Read request sizes (log2)
system.mem_ctrls0.readPktSize::4                    0                       # Read request sizes (log2)
system.mem_ctrls0.readPktSize::5                    0                       # Read request sizes (log2)
system.mem_ctrls0.readPktSize::6                54628                       # Read request sizes (log2)
system.mem_ctrls0.writePktSize::0                   0                       # Write request sizes (log2)
system.mem_ctrls0.writePktSize::1                   0                       # Write request sizes (log2)
system.mem_ctrls0.writePktSize::2                   0                       # Write request sizes (log2)
system.mem_ctrls0.writePktSize::3                   0                       # Write request sizes (log2)
system.mem_ctrls0.writePktSize::4                   0                       # Write request sizes (log2)
system.mem_ctrls0.writePktSize::5                   0                       # Write request sizes (log2)
system.mem_ctrls0.writePktSize::6                   0                       # Write request sizes (log2)
system.mem_ctrls0.rdQLenPdf::0                  38191                       # What read queue length does an incoming req see
system.mem_ctrls0.rdQLenPdf::1                  11193                       # What read queue length does an incoming req see
system.mem_ctrls0.rdQLenPdf::2                   3361                       # What read queue length does an incoming req see
system.mem_ctrls0.rdQLenPdf::3                   1211                       # What read queue length does an incoming req see
system.mem_ctrls0.rdQLenPdf::4                    439                       # What read queue length does an incoming req see
system.mem_ctrls0.rdQLenPdf::5                    153                       # What read queue length does an incoming req see
system.mem_ctrls0.rdQLenPdf::6                     49                       # What read queue length does an incoming req see
system.mem_ctrls0.rdQLenPdf::7                     18                       # What read queue length does an incoming req see
system.mem_ctrls0.rdQLenPdf::8                      7                       # What read queue length does an incoming req see
system.mem_ctrls0.rdQLenPdf::9                      4                       # What read queue length does an incoming req see
system.mem_ctrls0.rdQLenPdf::10                     2                       # What read queue length does an incoming req see
system.mem_ctrls0.rdQLenPdf::11                     0                       # What read queue length does an incoming req see
system.mem_ctrls0.rdQLenPdf::12                     0                       # What read queue length does an incoming req see
system.mem_ctrls0.rdQLenPdf::13                     0                       # What read queue length does an incoming req see
system.mem_ctrls0.rdQLenPdf::14                     0                       # What read queue length does an incoming req see
system.mem_ctrls0.rdQLenPdf::15                     0                       # What read queue length does an incoming req see
system.mem_ctrls0.rdQLenPdf::16                     0                       # What read queue length does an incoming req see
system.mem_ctrls0.rdQLenPdf::17                     0                       # What read queue length does an incoming req see
system.mem_ctrls0.rdQLenPdf::18                     0                       # What read queue length does an incoming req see
system.mem_ctrls0.rdQLenPdf::19                     0                       # What read queue length does an incoming req see
system.mem_ctrls0.rdQLenPdf::20                     0                       # What read queue length does an incoming req see
system.mem_ctrls0.rdQLenPdf::21                     0                       # What read queue length does an incoming req see
system.mem_ctrls0.rdQLenPdf::22                     0                       # What read queue length does an incoming req see
system.mem_ctrls0.rdQLenPdf::23                     0                       # What read queue length does an incoming req see
system.mem_ctrls0.rdQLenPdf::24                     0                       # What read queue length does an incoming req see
system.mem_ctrls0.rdQLenPdf::25                     0                       # What read queue length does an incoming req see
system.mem_ctrls0.rdQLenPdf::26                     0                       # What read queue length does an incoming req see
system.mem_ctrls0.rdQLenPdf::27                     0                       # What read queue length does an incoming req see
system.mem_ctrls0.rdQLenPdf::28                     0                       # What read queue length does an incoming req see
system.mem_ctrls0.rdQLenPdf::29                     0                       # What read queue length does an incoming req see
system.mem_ctrls0.rdQLenPdf::30                     0                       # What read queue length does an incoming req see
system.mem_ctrls0.rdQLenPdf::31                     0                       # What read queue length does an incoming req see
system.mem_ctrls0.wrQLenPdf::0                      0                       # What write queue length does an incoming req see
system.mem_ctrls0.wrQLenPdf::1                      0                       # What write queue length does an incoming req see
system.mem_ctrls0.wrQLenPdf::2                      0                       # What write queue length does an incoming req see
system.mem_ctrls0.wrQLenPdf::3                      0                       # What write queue length does an incoming req see
system.mem_ctrls0.wrQLenPdf::4                      0                       # What write queue length does an incoming req see
system.mem_ctrls0.wrQLenPdf::5                      0                       # What write queue length does an incoming req see
system.mem_ctrls0.wrQLenPdf::6                      0                       # What write queue length does an incoming req see
system.mem_ctrls0.wrQLenPdf::7                      0                       # What write queue length does an incoming req see
system.mem_ctrls0.wrQLenPdf::8                      0                       # What write queue length does an incoming req see
system.mem_ctrls0.wrQLenPdf::9                      0                       # What write queue length does an incoming req see
system.mem_ctrls0.wrQLenPdf::10                     0                       # What write queue length does an incoming req see
system.mem_ctrls0.wrQLenPdf::11                     0                       # What write queue length does an incoming req see
system.mem_ctrls0.wrQLenPdf::12                     0                       # What write queue length does an incoming req see
system.mem_ctrls0.wrQLenPdf::13                     0                       # What write queue length does an incoming req see
system.mem_ctrls0.wrQLenPdf::14                     0                       # What write queue length does an incoming req see
system.mem_ctrls0.wrQLenPdf::15                     0                       # What write queue length does an incoming req see
system.mem_ctrls0.wrQLenPdf::16                     0                       # What write queue length does an incoming req see
system.mem_ctrls0.wrQLenPdf::17                     0                       # What write queue length does an incoming req see
system.mem_ctrls0.wrQLenPdf::18                     0                       # What write queue length does an incoming req see
system.mem_ctrls0.wrQLenPdf::19                     0                       # What write queue length does an incoming req see
system.mem_ctrls0.wrQLenPdf::20                     0                       # What write queue length does an incoming req see
system.mem_ctrls0.wrQLenPdf::21                     0                       # What write queue length does an incoming req see
system.mem_ctrls0.wrQLenPdf::22                     0                       # What write queue length does an incoming req see
system.mem_ctrls0.wrQLenPdf::23                     0                       # What write queue length does an incoming req see
system.mem_ctrls0.wrQLenPdf::24                     0                       # What write queue length does an incoming req see
system.mem_ctrls0.wrQLenPdf::25                     0                       # What write queue length does an incoming req see
system.mem_ctrls0.wrQLenPdf::26                     0                       # What write queue length does an incoming req see
system.mem_ctrls0.wrQLenPdf::27                     0                       # What write queue length does an incoming req see
system.mem_ctrls0.wrQLenPdf::28                     0                       # What write queue length does an incoming req see
system.mem_ctrls0.wrQLenPdf::29                     0                       # What write queue length does an incoming req see
system.mem_ctrls0.wrQLenPdf::30                     0                       # What write queue length does an incoming req see
system.mem_ctrls0.wrQLenPdf::31                     0                       # What write queue length does an incoming req see
system.mem_ctrls0.wrQLenPdf::32                     0                       # What write queue length does an incoming req see
system.mem_ctrls0.wrQLenPdf::33                     0                       # What write queue length does an incoming req see
system.mem_ctrls0.wrQLenPdf::34                     0                       # What write queue length does an incoming req see
system.mem_ctrls0.wrQLenPdf::35                     0                       # What write queue length does an incoming req see
system.mem_ctrls0.wrQLenPdf::36                     0                       # What write queue length does an incoming req see
system.mem_ctrls0.wrQLenPdf::37                     0                       # What write queue length does an incoming req see
system.mem_ctrls0.wrQLenPdf::38                     0                       # What write queue length does an incoming req see
system.mem_ctrls0.wrQLenPdf::39                     0                       # What write queue length does an incoming req see
system.mem_ctrls0.wrQLenPdf::40                     0                       # What write queue length does an incoming req see
system.mem_ctrls0.wrQLenPdf::41                     0                       # What write queue length does an incoming req see
system.mem_ctrls0.wrQLenPdf::42                     0                       # What write queue length does an incoming req see
system.mem_ctrls0.wrQLenPdf::43                     0                       # What write queue length does an incoming req see
system.mem_ctrls0.wrQLenPdf::44                     0                       # What write queue length does an incoming req see
system.mem_ctrls0.wrQLenPdf::45                     0                       # What write queue length does an incoming req see
system.mem_ctrls0.wrQLenPdf::46                     0                       # What write queue length does an incoming req see
system.mem_ctrls0.wrQLenPdf::47                     0                       # What write queue length does an incoming req see
system.mem_ctrls0.wrQLenPdf::48                     0                       # What write queue length does an incoming req see
system.mem_ctrls0.wrQLenPdf::49                     0                       # What write queue length does an incoming req see
system.mem_ctrls0.wrQLenPdf::50                     0                       # What write queue length does an incoming req see
system.mem_ctrls0.wrQLenPdf::51                     0                       # What write queue length does an incoming req see
system.mem_ctrls0.wrQLenPdf::52                     0                       # What write queue length does an incoming req see
system.mem_ctrls0.wrQLenPdf::53                     0                       # What write queue length does an incoming req see
system.mem_ctrls0.wrQLenPdf::54                     0                       # What write queue length does an incoming req see
system.mem_ctrls0.wrQLenPdf::55                     0                       # What write queue length does an incoming req see
system.mem_ctrls0.wrQLenPdf::56                     0                       # What write queue length does an incoming req see
system.mem_ctrls0.wrQLenPdf::57                     0                       # What write queue length does an incoming req see
system.mem_ctrls0.wrQLenPdf::58                     0                       # What write queue length does an incoming req see
system.mem_ctrls0.wrQLenPdf::59                     0                       # What write queue length does an incoming req see
system.mem_ctrls0.wrQLenPdf::60                     0                       # What write queue length does an incoming req see
system.mem_ctrls0.wrQLenPdf::61                     0                       # What write queue length does an incoming req see
system.mem_ctrls0.wrQLenPdf::62                     0                       # What write queue length does an incoming req see
system.mem_ctrls0.wrQLenPdf::63                     0                       # What write queue length does an incoming req see
system.mem_ctrls0.bytesPerActivate::samples        33437                       # Bytes accessed per row activation
system.mem_ctrls0.bytesPerActivate::mean   104.543350                       # Bytes accessed per row activation
system.mem_ctrls0.bytesPerActivate::gmean    80.187594                       # Bytes accessed per row activation
system.mem_ctrls0.bytesPerActivate::stdev   118.511022                       # Bytes accessed per row activation
system.mem_ctrls0.bytesPerActivate::0-127        28052     83.90%     83.90% # Bytes accessed per row activation
system.mem_ctrls0.bytesPerActivate::128-255         2606      7.79%     91.69% # Bytes accessed per row activation
system.mem_ctrls0.bytesPerActivate::256-383          365      1.09%     92.78% # Bytes accessed per row activation
system.mem_ctrls0.bytesPerActivate::384-511          284      0.85%     93.63% # Bytes accessed per row activation
system.mem_ctrls0.bytesPerActivate::512-639         2038      6.10%     99.72% # Bytes accessed per row activation
system.mem_ctrls0.bytesPerActivate::640-767           72      0.22%     99.94% # Bytes accessed per row activation
system.mem_ctrls0.bytesPerActivate::768-895           10      0.03%     99.97% # Bytes accessed per row activation
system.mem_ctrls0.bytesPerActivate::896-1023            3      0.01%     99.98% # Bytes accessed per row activation
system.mem_ctrls0.bytesPerActivate::1024-1151            7      0.02%    100.00% # Bytes accessed per row activation
system.mem_ctrls0.bytesPerActivate::total        33437                       # Bytes accessed per row activation
system.mem_ctrls0.totQLat                  1492086500                       # Total ticks spent queuing
system.mem_ctrls0.totMemAccLat             2516361500                       # Total ticks spent from burst creation until serviced by the DRAM
system.mem_ctrls0.totBusLat                 273140000                       # Total ticks spent in databus transfers
system.mem_ctrls0.avgQLat                    27313.58                       # Average queueing delay per DRAM burst
system.mem_ctrls0.avgBusLat                   5000.00                       # Average bus latency per DRAM burst
system.mem_ctrls0.avgMemAccLat               46063.58                       # Average memory access latency per DRAM burst
system.mem_ctrls0.avgRdBW                      150.02                       # Average DRAM read bandwidth in MiByte/s
system.mem_ctrls0.avgWrBW                        0.00                       # Average achieved write bandwidth in MiByte/s
system.mem_ctrls0.avgRdBWSys                   150.02                       # Average system read bandwidth in MiByte/s
system.mem_ctrls0.avgWrBWSys                     0.00                       # Average system write bandwidth in MiByte/s
system.mem_ctrls0.peakBW                     12800.00                       # Theoretical peak bandwidth in MiByte/s
system.mem_ctrls0.busUtil                        1.17                       # Data bus utilization in percentage
system.mem_ctrls0.busUtilRead                    1.17                       # Data bus utilization in percentage for reads
system.mem_ctrls0.busUtilWrite                   0.00                       # Data bus utilization in percentage for writes
system.mem_ctrls0.avgRdQLen                      1.18                       # Average read queue length when enqueuing
system.mem_ctrls0.avgWrQLen                      0.00                       # Average write queue length when enqueuing
system.mem_ctrls0.readRowHits                   21188                       # Number of row buffer hits during reads
system.mem_ctrls0.writeRowHits                      0                       # Number of row buffer hits during writes
system.mem_ctrls0.readRowHitRate                38.79                       # Row buffer hit rate for reads
system.mem_ctrls0.writeRowHitRate                 nan                       # Row buffer hit rate for writes
system.mem_ctrls0.avgGap                    426582.76                       # Average gap between requests
system.mem_ctrls0.pageHitRate                   38.79                       # Row buffer hit rate, read and write combined
system.mem_ctrls0_0.actEnergy                96182940                       # Energy for activate commands per rank (pJ)
system.mem_ctrls0_0.preEnergy                51111060                       # Energy for precharge commands per rank (pJ)
system.mem_ctrls0_0.readEnergy              188967240                       # Energy for read commands per rank (pJ)
system.mem_ctrls0_0.writeEnergy                     0                       # Energy for write commands per rank (pJ)
system.mem_ctrls0_0.refreshEnergy        1344217680.000000                       # Energy for refresh commands per rank (pJ)
system.mem_ctrls0_0.actBackEnergy           633548730                       # Energy for active background per rank (pJ)
system.mem_ctrls0_0.preBackEnergy            34440480                       # Energy for precharge background per rank (pJ)
system.mem_ctrls0_0.actPowerDownEnergy     6308481270                       # Energy for active power-down per rank (pJ)
system.mem_ctrls0_0.prePowerDownEnergy      476467200                       # Energy for precharge power-down per rank (pJ)
system.mem_ctrls0_0.selfRefreshEnergy      1656577155                       # Energy for self refresh per rank (pJ)
system.mem_ctrls0_0.totalEnergy           10790132145                       # Total energy per rank (pJ)
system.mem_ctrls0_0.averagePower           463.008117                       # Core power per rank (mW)
system.mem_ctrls0_0.totalIdleTime         21824142750                       # Total Idle time Per DRAM Rank
system.mem_ctrls0_0.memoryStateTime::IDLE     29704000                       # Time in different power states
system.mem_ctrls0_0.memoryStateTime::REF    569016000                       # Time in different power states
system.mem_ctrls0_0.memoryStateTime::SREF   6749860750                       # Time in different power states
system.mem_ctrls0_0.memoryStateTime::PRE_PDN   1240797250                       # Time in different power states
system.mem_ctrls0_0.memoryStateTime::ACT    880622500                       # Time in different power states
system.mem_ctrls0_0.memoryStateTime::ACT_PDN  13834411000                       # Time in different power states
system.mem_ctrls0_1.actEnergy               142578660                       # Energy for activate commands per rank (pJ)
system.mem_ctrls0_1.preEnergy                75782355                       # Energy for precharge commands per rank (pJ)
system.mem_ctrls0_1.readEnergy              201076680                       # Energy for read commands per rank (pJ)
system.mem_ctrls0_1.writeEnergy                     0                       # Energy for write commands per rank (pJ)
system.mem_ctrls0_1.refreshEnergy        1084839600.000000                       # Energy for refresh commands per rank (pJ)
system.mem_ctrls0_1.actBackEnergy           653475360                       # Energy for active background per rank (pJ)
system.mem_ctrls0_1.preBackEnergy            30488160                       # Energy for precharge background per rank (pJ)
system.mem_ctrls0_1.actPowerDownEnergy     4782789060                       # Energy for active power-down per rank (pJ)
system.mem_ctrls0_1.prePowerDownEnergy      439044000                       # Energy for precharge power-down per rank (pJ)
system.mem_ctrls0_1.selfRefreshEnergy      2484274725                       # Energy for self refresh per rank (pJ)
system.mem_ctrls0_1.totalEnergy            9894386370                       # Total energy per rank (pJ)
system.mem_ctrls0_1.averagePower           424.571371                       # Core power per rank (mW)
system.mem_ctrls0_1.totalIdleTime         21789033250                       # Total Idle time Per DRAM Rank
system.mem_ctrls0_1.memoryStateTime::IDLE     31086750                       # Time in different power states
system.mem_ctrls0_1.memoryStateTime::REF    459404000                       # Time in different power states
system.mem_ctrls0_1.memoryStateTime::SREF  10159952750                       # Time in different power states
system.mem_ctrls0_1.memoryStateTime::PRE_PDN   1143339500                       # Time in different power states
system.mem_ctrls0_1.memoryStateTime::ACT   1021669000                       # Time in different power states
system.mem_ctrls0_1.memoryStateTime::ACT_PDN  10488959500                       # Time in different power states
system.mem_ctrls1.pwrStateResidencyTicks::UNDEFINED  23304411500                       # Cumulative time (in ticks) in various power states
system.mem_ctrls1.bytes_read::ruby.dir_cntrl1      3474688                       # Number of bytes read from this memory
system.mem_ctrls1.bytes_read::total           3474688                       # Number of bytes read from this memory
system.mem_ctrls1.num_reads::ruby.dir_cntrl1        54292                       # Number of read requests responded to by this memory
system.mem_ctrls1.num_reads::total              54292                       # Number of read requests responded to by this memory
system.mem_ctrls1.bw_read::ruby.dir_cntrl1    149100011                       # Total read bandwidth from this memory (bytes/s)
system.mem_ctrls1.bw_read::total            149100011                       # Total read bandwidth from this memory (bytes/s)
system.mem_ctrls1.bw_total::ruby.dir_cntrl1    149100011                       # Total bandwidth to/from this memory (bytes/s)
system.mem_ctrls1.bw_total::total           149100011                       # Total bandwidth to/from this memory (bytes/s)
system.mem_ctrls1.readReqs                      54292                       # Number of read requests accepted
system.mem_ctrls1.avgNetLat                      0.00                       # Average network latency to DRAM controller
system.mem_ctrls1.writeReqs                         0                       # Number of write requests accepted
system.mem_ctrls1.readBursts                    54292                       # Number of DRAM read bursts, including those serviced by the write queue
system.mem_ctrls1.writeBursts                       0                       # Number of DRAM write bursts, including those merged in the write queue
system.mem_ctrls1.bytesReadDRAM               3474688                       # Total number of bytes read from DRAM
system.mem_ctrls1.bytesReadWrQ                      0                       # Total number of bytes read from write queue
system.mem_ctrls1.bytesWritten                      0                       # Total number of bytes written to DRAM
system.mem_ctrls1.bytesReadSys                3474688                       # Total read bytes from the system interface side
system.mem_ctrls1.bytesWrittenSys                   0                       # Total written bytes from the system interface side
system.mem_ctrls1.servicedByWrQ                     0                       # Number of DRAM read bursts serviced by the write queue
system.mem_ctrls1.mergedWrBursts                    0                       # Number of DRAM write bursts merged with an existing one
system.mem_ctrls1.neitherReadNorWriteReqs            0                       # Number of requests that are neither read nor write
system.mem_ctrls1.perBankRdBursts::0             3807                       # Per bank write bursts
system.mem_ctrls1.perBankRdBursts::1             3576                       # Per bank write bursts
system.mem_ctrls1.perBankRdBursts::2             3229                       # Per bank write bursts
system.mem_ctrls1.perBankRdBursts::3             3276                       # Per bank write bursts
system.mem_ctrls1.perBankRdBursts::4             3229                       # Per bank write bursts
system.mem_ctrls1.perBankRdBursts::5             3082                       # Per bank write bursts
system.mem_ctrls1.perBankRdBursts::6             3116                       # Per bank write bursts
system.mem_ctrls1.perBankRdBursts::7             2992                       # Per bank write bursts
system.mem_ctrls1.perBankRdBursts::8             3227                       # Per bank write bursts
system.mem_ctrls1.perBankRdBursts::9             3274                       # Per bank write bursts
system.mem_ctrls1.perBankRdBursts::10            3478                       # Per bank write bursts
system.mem_ctrls1.perBankRdBursts::11            3504                       # Per bank write bursts
system.mem_ctrls1.perBankRdBursts::12            3606                       # Per bank write bursts
system.mem_ctrls1.perBankRdBursts::13            3434                       # Per bank write bursts
system.mem_ctrls1.perBankRdBursts::14            3430                       # Per bank write bursts
system.mem_ctrls1.perBankRdBursts::15            4032                       # Per bank write bursts
system.mem_ctrls1.perBankWrBursts::0                0                       # Per bank write bursts
system.mem_ctrls1.perBankWrBursts::1                0                       # Per bank write bursts
system.mem_ctrls1.perBankWrBursts::2                0                       # Per bank write bursts
system.mem_ctrls1.perBankWrBursts::3                0                       # Per bank write bursts
system.mem_ctrls1.perBankWrBursts::4                0                       # Per bank write bursts
system.mem_ctrls1.perBankWrBursts::5                0                       # Per bank write bursts
system.mem_ctrls1.perBankWrBursts::6                0                       # Per bank write bursts
system.mem_ctrls1.perBankWrBursts::7                0                       # Per bank write bursts
system.mem_ctrls1.perBankWrBursts::8                0                       # Per bank write bursts
system.mem_ctrls1.perBankWrBursts::9                0                       # Per bank write bursts
system.mem_ctrls1.perBankWrBursts::10               0                       # Per bank write bursts
system.mem_ctrls1.perBankWrBursts::11               0                       # Per bank write bursts
system.mem_ctrls1.perBankWrBursts::12               0                       # Per bank write bursts
system.mem_ctrls1.perBankWrBursts::13               0                       # Per bank write bursts
system.mem_ctrls1.perBankWrBursts::14               0                       # Per bank write bursts
system.mem_ctrls1.perBankWrBursts::15               0                       # Per bank write bursts
system.mem_ctrls1.numRdRetry                        0                       # Number of times read queue was full causing retry
system.mem_ctrls1.numWrRetry                        0                       # Number of times write queue was full causing retry
system.mem_ctrls1.totGap                  23303827500                       # Total gap between requests
system.mem_ctrls1.readPktSize::0                    0                       # Read request sizes (log2)
system.mem_ctrls1.readPktSize::1                    0                       # Read request sizes (log2)
system.mem_ctrls1.readPktSize::2                    0                       # Read request sizes (log2)
system.mem_ctrls1.readPktSize::3                    0                       # Read request sizes (log2)
system.mem_ctrls1.readPktSize::4                    0                       # Read request sizes (log2)
system.mem_ctrls1.readPktSize::5                    0                       # Read request sizes (log2)
system.mem_ctrls1.readPktSize::6                54292                       # Read request sizes (log2)
system.mem_ctrls1.writePktSize::0                   0                       # Write request sizes (log2)
system.mem_ctrls1.writePktSize::1                   0                       # Write request sizes (log2)
system.mem_ctrls1.writePktSize::2                   0                       # Write request sizes (log2)
system.mem_ctrls1.writePktSize::3                   0                       # Write request sizes (log2)
system.mem_ctrls1.writePktSize::4                   0                       # Write request sizes (log2)
system.mem_ctrls1.writePktSize::5                   0                       # Write request sizes (log2)
system.mem_ctrls1.writePktSize::6                   0                       # Write request sizes (log2)
system.mem_ctrls1.rdQLenPdf::0                  38001                       # What read queue length does an incoming req see
system.mem_ctrls1.rdQLenPdf::1                  11147                       # What read queue length does an incoming req see
system.mem_ctrls1.rdQLenPdf::2                   3211                       # What read queue length does an incoming req see
system.mem_ctrls1.rdQLenPdf::3                   1214                       # What read queue length does an incoming req see
system.mem_ctrls1.rdQLenPdf::4                    425                       # What read queue length does an incoming req see
system.mem_ctrls1.rdQLenPdf::5                    162                       # What read queue length does an incoming req see
system.mem_ctrls1.rdQLenPdf::6                     63                       # What read queue length does an incoming req see
system.mem_ctrls1.rdQLenPdf::7                     36                       # What read queue length does an incoming req see
system.mem_ctrls1.rdQLenPdf::8                     15                       # What read queue length does an incoming req see
system.mem_ctrls1.rdQLenPdf::9                     11                       # What read queue length does an incoming req see
system.mem_ctrls1.rdQLenPdf::10                     5                       # What read queue length does an incoming req see
system.mem_ctrls1.rdQLenPdf::11                     2                       # What read queue length does an incoming req see
system.mem_ctrls1.rdQLenPdf::12                     0                       # What read queue length does an incoming req see
system.mem_ctrls1.rdQLenPdf::13                     0                       # What read queue length does an incoming req see
system.mem_ctrls1.rdQLenPdf::14                     0                       # What read queue length does an incoming req see
system.mem_ctrls1.rdQLenPdf::15                     0                       # What read queue length does an incoming req see
system.mem_ctrls1.rdQLenPdf::16                     0                       # What read queue length does an incoming req see
system.mem_ctrls1.rdQLenPdf::17                     0                       # What read queue length does an incoming req see
system.mem_ctrls1.rdQLenPdf::18                     0                       # What read queue length does an incoming req see
system.mem_ctrls1.rdQLenPdf::19                     0                       # What read queue length does an incoming req see
system.mem_ctrls1.rdQLenPdf::20                     0                       # What read queue length does an incoming req see
system.mem_ctrls1.rdQLenPdf::21                     0                       # What read queue length does an incoming req see
system.mem_ctrls1.rdQLenPdf::22                     0                       # What read queue length does an incoming req see
system.mem_ctrls1.rdQLenPdf::23                     0                       # What read queue length does an incoming req see
system.mem_ctrls1.rdQLenPdf::24                     0                       # What read queue length does an incoming req see
system.mem_ctrls1.rdQLenPdf::25                     0                       # What read queue length does an incoming req see
system.mem_ctrls1.rdQLenPdf::26                     0                       # What read queue length does an incoming req see
system.mem_ctrls1.rdQLenPdf::27                     0                       # What read queue length does an incoming req see
system.mem_ctrls1.rdQLenPdf::28                     0                       # What read queue length does an incoming req see
system.mem_ctrls1.rdQLenPdf::29                     0                       # What read queue length does an incoming req see
system.mem_ctrls1.rdQLenPdf::30                     0                       # What read queue length does an incoming req see
system.mem_ctrls1.rdQLenPdf::31                     0                       # What read queue length does an incoming req see
system.mem_ctrls1.wrQLenPdf::0                      0                       # What write queue length does an incoming req see
system.mem_ctrls1.wrQLenPdf::1                      0                       # What write queue length does an incoming req see
system.mem_ctrls1.wrQLenPdf::2                      0                       # What write queue length does an incoming req see
system.mem_ctrls1.wrQLenPdf::3                      0                       # What write queue length does an incoming req see
system.mem_ctrls1.wrQLenPdf::4                      0                       # What write queue length does an incoming req see
system.mem_ctrls1.wrQLenPdf::5                      0                       # What write queue length does an incoming req see
system.mem_ctrls1.wrQLenPdf::6                      0                       # What write queue length does an incoming req see
system.mem_ctrls1.wrQLenPdf::7                      0                       # What write queue length does an incoming req see
system.mem_ctrls1.wrQLenPdf::8                      0                       # What write queue length does an incoming req see
system.mem_ctrls1.wrQLenPdf::9                      0                       # What write queue length does an incoming req see
system.mem_ctrls1.wrQLenPdf::10                     0                       # What write queue length does an incoming req see
system.mem_ctrls1.wrQLenPdf::11                     0                       # What write queue length does an incoming req see
system.mem_ctrls1.wrQLenPdf::12                     0                       # What write queue length does an incoming req see
system.mem_ctrls1.wrQLenPdf::13                     0                       # What write queue length does an incoming req see
system.mem_ctrls1.wrQLenPdf::14                     0                       # What write queue length does an incoming req see
system.mem_ctrls1.wrQLenPdf::15                     0                       # What write queue length does an incoming req see
system.mem_ctrls1.wrQLenPdf::16                     0                       # What write queue length does an incoming req see
system.mem_ctrls1.wrQLenPdf::17                     0                       # What write queue length does an incoming req see
system.mem_ctrls1.wrQLenPdf::18                     0                       # What write queue length does an incoming req see
system.mem_ctrls1.wrQLenPdf::19                     0                       # What write queue length does an incoming req see
system.mem_ctrls1.wrQLenPdf::20                     0                       # What write queue length does an incoming req see
system.mem_ctrls1.wrQLenPdf::21                     0                       # What write queue length does an incoming req see
system.mem_ctrls1.wrQLenPdf::22                     0                       # What write queue length does an incoming req see
system.mem_ctrls1.wrQLenPdf::23                     0                       # What write queue length does an incoming req see
system.mem_ctrls1.wrQLenPdf::24                     0                       # What write queue length does an incoming req see
system.mem_ctrls1.wrQLenPdf::25                     0                       # What write queue length does an incoming req see
system.mem_ctrls1.wrQLenPdf::26                     0                       # What write queue length does an incoming req see
system.mem_ctrls1.wrQLenPdf::27                     0                       # What write queue length does an incoming req see
system.mem_ctrls1.wrQLenPdf::28                     0                       # What write queue length does an incoming req see
system.mem_ctrls1.wrQLenPdf::29                     0                       # What write queue length does an incoming req see
system.mem_ctrls1.wrQLenPdf::30                     0                       # What write queue length does an incoming req see
system.mem_ctrls1.wrQLenPdf::31                     0                       # What write queue length does an incoming req see
system.mem_ctrls1.wrQLenPdf::32                     0                       # What write queue length does an incoming req see
system.mem_ctrls1.wrQLenPdf::33                     0                       # What write queue length does an incoming req see
system.mem_ctrls1.wrQLenPdf::34                     0                       # What write queue length does an incoming req see
system.mem_ctrls1.wrQLenPdf::35                     0                       # What write queue length does an incoming req see
system.mem_ctrls1.wrQLenPdf::36                     0                       # What write queue length does an incoming req see
system.mem_ctrls1.wrQLenPdf::37                     0                       # What write queue length does an incoming req see
system.mem_ctrls1.wrQLenPdf::38                     0                       # What write queue length does an incoming req see
system.mem_ctrls1.wrQLenPdf::39                     0                       # What write queue length does an incoming req see
system.mem_ctrls1.wrQLenPdf::40                     0                       # What write queue length does an incoming req see
system.mem_ctrls1.wrQLenPdf::41                     0                       # What write queue length does an incoming req see
system.mem_ctrls1.wrQLenPdf::42                     0                       # What write queue length does an incoming req see
system.mem_ctrls1.wrQLenPdf::43                     0                       # What write queue length does an incoming req see
system.mem_ctrls1.wrQLenPdf::44                     0                       # What write queue length does an incoming req see
system.mem_ctrls1.wrQLenPdf::45                     0                       # What write queue length does an incoming req see
system.mem_ctrls1.wrQLenPdf::46                     0                       # What write queue length does an incoming req see
system.mem_ctrls1.wrQLenPdf::47                     0                       # What write queue length does an incoming req see
system.mem_ctrls1.wrQLenPdf::48                     0                       # What write queue length does an incoming req see
system.mem_ctrls1.wrQLenPdf::49                     0                       # What write queue length does an incoming req see
system.mem_ctrls1.wrQLenPdf::50                     0                       # What write queue length does an incoming req see
system.mem_ctrls1.wrQLenPdf::51                     0                       # What write queue length does an incoming req see
system.mem_ctrls1.wrQLenPdf::52                     0                       # What write queue length does an incoming req see
system.mem_ctrls1.wrQLenPdf::53                     0                       # What write queue length does an incoming req see
system.mem_ctrls1.wrQLenPdf::54                     0                       # What write queue length does an incoming req see
system.mem_ctrls1.wrQLenPdf::55                     0                       # What write queue length does an incoming req see
system.mem_ctrls1.wrQLenPdf::56                     0                       # What write queue length does an incoming req see
system.mem_ctrls1.wrQLenPdf::57                     0                       # What write queue length does an incoming req see
system.mem_ctrls1.wrQLenPdf::58                     0                       # What write queue length does an incoming req see
system.mem_ctrls1.wrQLenPdf::59                     0                       # What write queue length does an incoming req see
system.mem_ctrls1.wrQLenPdf::60                     0                       # What write queue length does an incoming req see
system.mem_ctrls1.wrQLenPdf::61                     0                       # What write queue length does an incoming req see
system.mem_ctrls1.wrQLenPdf::62                     0                       # What write queue length does an incoming req see
system.mem_ctrls1.wrQLenPdf::63                     0                       # What write queue length does an incoming req see
system.mem_ctrls1.bytesPerActivate::samples        33143                       # Bytes accessed per row activation
system.mem_ctrls1.bytesPerActivate::mean   104.825755                       # Bytes accessed per row activation
system.mem_ctrls1.bytesPerActivate::gmean    80.246173                       # Bytes accessed per row activation
system.mem_ctrls1.bytesPerActivate::stdev   119.092628                       # Bytes accessed per row activation
system.mem_ctrls1.bytesPerActivate::0-127        27825     83.95%     83.95% # Bytes accessed per row activation
system.mem_ctrls1.bytesPerActivate::128-255         2539      7.66%     91.62% # Bytes accessed per row activation
system.mem_ctrls1.bytesPerActivate::256-383          379      1.14%     92.76% # Bytes accessed per row activation
system.mem_ctrls1.bytesPerActivate::384-511          224      0.68%     93.43% # Bytes accessed per row activation
system.mem_ctrls1.bytesPerActivate::512-639         2086      6.29%     99.73% # Bytes accessed per row activation
system.mem_ctrls1.bytesPerActivate::640-767           69      0.21%     99.94% # Bytes accessed per row activation
system.mem_ctrls1.bytesPerActivate::768-895           13      0.04%     99.98% # Bytes accessed per row activation
system.mem_ctrls1.bytesPerActivate::896-1023            2      0.01%     99.98% # Bytes accessed per row activation
system.mem_ctrls1.bytesPerActivate::1024-1151            6      0.02%    100.00% # Bytes accessed per row activation
system.mem_ctrls1.bytesPerActivate::total        33143                       # Bytes accessed per row activation
system.mem_ctrls1.totQLat                  1597736000                       # Total ticks spent queuing
system.mem_ctrls1.totMemAccLat             2615711000                       # Total ticks spent from burst creation until serviced by the DRAM
system.mem_ctrls1.totBusLat                 271460000                       # Total ticks spent in databus transfers
system.mem_ctrls1.avgQLat                    29428.57                       # Average queueing delay per DRAM burst
system.mem_ctrls1.avgBusLat                   5000.00                       # Average bus latency per DRAM burst
system.mem_ctrls1.avgMemAccLat               48178.57                       # Average memory access latency per DRAM burst
system.mem_ctrls1.avgRdBW                      149.10                       # Average DRAM read bandwidth in MiByte/s
system.mem_ctrls1.avgWrBW                        0.00                       # Average achieved write bandwidth in MiByte/s
system.mem_ctrls1.avgRdBWSys                   149.10                       # Average system read bandwidth in MiByte/s
system.mem_ctrls1.avgWrBWSys                     0.00                       # Average system write bandwidth in MiByte/s
system.mem_ctrls1.peakBW                     12800.00                       # Theoretical peak bandwidth in MiByte/s
system.mem_ctrls1.busUtil                        1.16                       # Data bus utilization in percentage
system.mem_ctrls1.busUtilRead                    1.16                       # Data bus utilization in percentage for reads
system.mem_ctrls1.busUtilWrite                   0.00                       # Data bus utilization in percentage for writes
system.mem_ctrls1.avgRdQLen                      1.18                       # Average read queue length when enqueuing
system.mem_ctrls1.avgWrQLen                      0.00                       # Average write queue length when enqueuing
system.mem_ctrls1.readRowHits                   21147                       # Number of row buffer hits during reads
system.mem_ctrls1.writeRowHits                      0                       # Number of row buffer hits during writes
system.mem_ctrls1.readRowHitRate                38.95                       # Row buffer hit rate for reads
system.mem_ctrls1.writeRowHitRate                 nan                       # Row buffer hit rate for writes
system.mem_ctrls1.avgGap                    429231.33                       # Average gap between requests
system.mem_ctrls1.pageHitRate                   38.95                       # Row buffer hit rate, read and write combined
system.mem_ctrls1_0.actEnergy                95190480                       # Energy for activate commands per rank (pJ)
system.mem_ctrls1_0.preEnergy                50591145                       # Energy for precharge commands per rank (pJ)
system.mem_ctrls1_0.readEnergy              187831980                       # Energy for read commands per rank (pJ)
system.mem_ctrls1_0.writeEnergy                     0                       # Energy for write commands per rank (pJ)
system.mem_ctrls1_0.refreshEnergy        1346676240.000000                       # Energy for refresh commands per rank (pJ)
system.mem_ctrls1_0.actBackEnergy           631212300                       # Energy for active background per rank (pJ)
system.mem_ctrls1_0.preBackEnergy            34846080                       # Energy for precharge background per rank (pJ)
system.mem_ctrls1_0.actPowerDownEnergy     6408000990                       # Energy for active power-down per rank (pJ)
system.mem_ctrls1_0.prePowerDownEnergy      406430880                       # Energy for precharge power-down per rank (pJ)
system.mem_ctrls1_0.selfRefreshEnergy      1648888845                       # Energy for self refresh per rank (pJ)
system.mem_ctrls1_0.totalEnergy           10809699870                       # Total energy per rank (pJ)
system.mem_ctrls1_0.averagePower           463.847774                       # Core power per rank (mW)
system.mem_ctrls1_0.totalIdleTime         21829023500                       # Total Idle time Per DRAM Rank
system.mem_ctrls1_0.memoryStateTime::IDLE     30250250                       # Time in different power states
system.mem_ctrls1_0.memoryStateTime::REF    570062000                       # Time in different power states
system.mem_ctrls1_0.memoryStateTime::SREF   6718314500                       # Time in different power states
system.mem_ctrls1_0.memoryStateTime::PRE_PDN   1058354500                       # Time in different power states
system.mem_ctrls1_0.memoryStateTime::ACT    874683500                       # Time in different power states
system.mem_ctrls1_0.memoryStateTime::ACT_PDN  14052746750                       # Time in different power states
system.mem_ctrls1_1.actEnergy               141464820                       # Energy for activate commands per rank (pJ)
system.mem_ctrls1_1.preEnergy                75186540                       # Energy for precharge commands per rank (pJ)
system.mem_ctrls1_1.readEnergy              199812900                       # Energy for read commands per rank (pJ)
system.mem_ctrls1_1.writeEnergy                     0                       # Energy for write commands per rank (pJ)
system.mem_ctrls1_1.refreshEnergy        1089142080.000000                       # Energy for refresh commands per rank (pJ)
system.mem_ctrls1_1.actBackEnergy           648387540                       # Energy for active background per rank (pJ)
system.mem_ctrls1_1.preBackEnergy            31053600                       # Energy for precharge background per rank (pJ)
system.mem_ctrls1_1.actPowerDownEnergy     4828462590                       # Energy for active power-down per rank (pJ)
system.mem_ctrls1_1.prePowerDownEnergy      416676960                       # Energy for precharge power-down per rank (pJ)
system.mem_ctrls1_1.selfRefreshEnergy      2478167340                       # Energy for self refresh per rank (pJ)
system.mem_ctrls1_1.totalEnergy            9908354370                       # Total energy per rank (pJ)
system.mem_ctrls1_1.averagePower           425.170743                       # Core power per rank (mW)
system.mem_ctrls1_1.totalIdleTime         21801576500                       # Total Idle time Per DRAM Rank
system.mem_ctrls1_1.memoryStateTime::IDLE     32333000                       # Time in different power states
system.mem_ctrls1_1.memoryStateTime::REF    461236000                       # Time in different power states
system.mem_ctrls1_1.memoryStateTime::SREF  10127810250                       # Time in different power states
system.mem_ctrls1_1.memoryStateTime::PRE_PDN   1084850750                       # Time in different power states
system.mem_ctrls1_1.memoryStateTime::ACT   1009127500                       # Time in different power states
system.mem_ctrls1_1.memoryStateTime::ACT_PDN  10589054000                       # Time in different power states
system.mem_ctrls2.pwrStateResidencyTicks::UNDEFINED  23304411500                       # Cumulative time (in ticks) in various power states
system.mem_ctrls2.bytes_read::ruby.dir_cntrl2      3490816                       # Number of bytes read from this memory
system.mem_ctrls2.bytes_read::total           3490816                       # Number of bytes read from this memory
system.mem_ctrls2.bytes_written::ruby.dir_cntrl2           64                       # Number of bytes written to this memory
system.mem_ctrls2.bytes_written::total             64                       # Number of bytes written to this memory
system.mem_ctrls2.num_reads::ruby.dir_cntrl2        54544                       # Number of read requests responded to by this memory
system.mem_ctrls2.num_reads::total              54544                       # Number of read requests responded to by this memory
system.mem_ctrls2.num_writes::ruby.dir_cntrl2            1                       # Number of write requests responded to by this memory
system.mem_ctrls2.num_writes::total                 1                       # Number of write requests responded to by this memory
system.mem_ctrls2.bw_read::ruby.dir_cntrl2    149792068                       # Total read bandwidth from this memory (bytes/s)
system.mem_ctrls2.bw_read::total            149792068                       # Total read bandwidth from this memory (bytes/s)
system.mem_ctrls2.bw_write::ruby.dir_cntrl2         2746                       # Write bandwidth from this memory (bytes/s)
system.mem_ctrls2.bw_write::total                2746                       # Write bandwidth from this memory (bytes/s)
system.mem_ctrls2.bw_total::ruby.dir_cntrl2    149794815                       # Total bandwidth to/from this memory (bytes/s)
system.mem_ctrls2.bw_total::total           149794815                       # Total bandwidth to/from this memory (bytes/s)
system.mem_ctrls2.readReqs                      54544                       # Number of read requests accepted
system.mem_ctrls2.avgNetLat                      0.00                       # Average network latency to DRAM controller
system.mem_ctrls2.writeReqs                         1                       # Number of write requests accepted
system.mem_ctrls2.readBursts                    54544                       # Number of DRAM read bursts, including those serviced by the write queue
system.mem_ctrls2.writeBursts                       1                       # Number of DRAM write bursts, including those merged in the write queue
system.mem_ctrls2.bytesReadDRAM               3490816                       # Total number of bytes read from DRAM
system.mem_ctrls2.bytesReadWrQ                      0                       # Total number of bytes read from write queue
system.mem_ctrls2.bytesWritten                      0                       # Total number of bytes written to DRAM
system.mem_ctrls2.bytesReadSys                3490816                       # Total read bytes from the system interface side
system.mem_ctrls2.bytesWrittenSys                  64                       # Total written bytes from the system interface side
system.mem_ctrls2.servicedByWrQ                     0                       # Number of DRAM read bursts serviced by the write queue
system.mem_ctrls2.mergedWrBursts                    0                       # Number of DRAM write bursts merged with an existing one
system.mem_ctrls2.neitherReadNorWriteReqs            0                       # Number of requests that are neither read nor write
system.mem_ctrls2.perBankRdBursts::0             3798                       # Per bank write bursts
system.mem_ctrls2.perBankRdBursts::1             3567                       # Per bank write bursts
system.mem_ctrls2.perBankRdBursts::2             3206                       # Per bank write bursts
system.mem_ctrls2.perBankRdBursts::3             3275                       # Per bank write bursts
system.mem_ctrls2.perBankRdBursts::4             3194                       # Per bank write bursts
system.mem_ctrls2.perBankRdBursts::5             3104                       # Per bank write bursts
system.mem_ctrls2.perBankRdBursts::6             3166                       # Per bank write bursts
system.mem_ctrls2.perBankRdBursts::7             3041                       # Per bank write bursts
system.mem_ctrls2.perBankRdBursts::8             3225                       # Per bank write bursts
system.mem_ctrls2.perBankRdBursts::9             3306                       # Per bank write bursts
system.mem_ctrls2.perBankRdBursts::10            3520                       # Per bank write bursts
system.mem_ctrls2.perBankRdBursts::11            3577                       # Per bank write bursts
system.mem_ctrls2.perBankRdBursts::12            3672                       # Per bank write bursts
system.mem_ctrls2.perBankRdBursts::13            3446                       # Per bank write bursts
system.mem_ctrls2.perBankRdBursts::14            3438                       # Per bank write bursts
system.mem_ctrls2.perBankRdBursts::15            4009                       # Per bank write bursts
system.mem_ctrls2.perBankWrBursts::0                0                       # Per bank write bursts
system.mem_ctrls2.perBankWrBursts::1                0                       # Per bank write bursts
system.mem_ctrls2.perBankWrBursts::2                0                       # Per bank write bursts
system.mem_ctrls2.perBankWrBursts::3                0                       # Per bank write bursts
system.mem_ctrls2.perBankWrBursts::4                0                       # Per bank write bursts
system.mem_ctrls2.perBankWrBursts::5                0                       # Per bank write bursts
system.mem_ctrls2.perBankWrBursts::6                0                       # Per bank write bursts
system.mem_ctrls2.perBankWrBursts::7                0                       # Per bank write bursts
system.mem_ctrls2.perBankWrBursts::8                0                       # Per bank write bursts
system.mem_ctrls2.perBankWrBursts::9                0                       # Per bank write bursts
system.mem_ctrls2.perBankWrBursts::10               0                       # Per bank write bursts
system.mem_ctrls2.perBankWrBursts::11               0                       # Per bank write bursts
system.mem_ctrls2.perBankWrBursts::12               0                       # Per bank write bursts
system.mem_ctrls2.perBankWrBursts::13               0                       # Per bank write bursts
system.mem_ctrls2.perBankWrBursts::14               0                       # Per bank write bursts
system.mem_ctrls2.perBankWrBursts::15               0                       # Per bank write bursts
system.mem_ctrls2.numRdRetry                        0                       # Number of times read queue was full causing retry
system.mem_ctrls2.numWrRetry                        0                       # Number of times write queue was full causing retry
system.mem_ctrls2.totGap                  23303413500                       # Total gap between requests
system.mem_ctrls2.readPktSize::0                    0                       # Read request sizes (log2)
system.mem_ctrls2.readPktSize::1                    0                       # Read request sizes (log2)
system.mem_ctrls2.readPktSize::2                    0                       # Read request sizes (log2)
system.mem_ctrls2.readPktSize::3                    0                       # Read request sizes (log2)
system.mem_ctrls2.readPktSize::4                    0                       # Read request sizes (log2)
system.mem_ctrls2.readPktSize::5                    0                       # Read request sizes (log2)
system.mem_ctrls2.readPktSize::6                54544                       # Read request sizes (log2)
system.mem_ctrls2.writePktSize::0                   0                       # Write request sizes (log2)
system.mem_ctrls2.writePktSize::1                   0                       # Write request sizes (log2)
system.mem_ctrls2.writePktSize::2                   0                       # Write request sizes (log2)
system.mem_ctrls2.writePktSize::3                   0                       # Write request sizes (log2)
system.mem_ctrls2.writePktSize::4                   0                       # Write request sizes (log2)
system.mem_ctrls2.writePktSize::5                   0                       # Write request sizes (log2)
system.mem_ctrls2.writePktSize::6                   1                       # Write request sizes (log2)
system.mem_ctrls2.rdQLenPdf::0                  37922                       # What read queue length does an incoming req see
system.mem_ctrls2.rdQLenPdf::1                  11280                       # What read queue length does an incoming req see
system.mem_ctrls2.rdQLenPdf::2                   3344                       # What read queue length does an incoming req see
system.mem_ctrls2.rdQLenPdf::3                   1240                       # What read queue length does an incoming req see
system.mem_ctrls2.rdQLenPdf::4                    455                       # What read queue length does an incoming req see
system.mem_ctrls2.rdQLenPdf::5                    166                       # What read queue length does an incoming req see
system.mem_ctrls2.rdQLenPdf::6                     79                       # What read queue length does an incoming req see
system.mem_ctrls2.rdQLenPdf::7                     31                       # What read queue length does an incoming req see
system.mem_ctrls2.rdQLenPdf::8                     12                       # What read queue length does an incoming req see
system.mem_ctrls2.rdQLenPdf::9                      8                       # What read queue length does an incoming req see
system.mem_ctrls2.rdQLenPdf::10                     5                       # What read queue length does an incoming req see
system.mem_ctrls2.rdQLenPdf::11                     1                       # What read queue length does an incoming req see
system.mem_ctrls2.rdQLenPdf::12                     1                       # What read queue length does an incoming req see
system.mem_ctrls2.rdQLenPdf::13                     0                       # What read queue length does an incoming req see
system.mem_ctrls2.rdQLenPdf::14                     0                       # What read queue length does an incoming req see
system.mem_ctrls2.rdQLenPdf::15                     0                       # What read queue length does an incoming req see
system.mem_ctrls2.rdQLenPdf::16                     0                       # What read queue length does an incoming req see
system.mem_ctrls2.rdQLenPdf::17                     0                       # What read queue length does an incoming req see
system.mem_ctrls2.rdQLenPdf::18                     0                       # What read queue length does an incoming req see
system.mem_ctrls2.rdQLenPdf::19                     0                       # What read queue length does an incoming req see
system.mem_ctrls2.rdQLenPdf::20                     0                       # What read queue length does an incoming req see
system.mem_ctrls2.rdQLenPdf::21                     0                       # What read queue length does an incoming req see
system.mem_ctrls2.rdQLenPdf::22                     0                       # What read queue length does an incoming req see
system.mem_ctrls2.rdQLenPdf::23                     0                       # What read queue length does an incoming req see
system.mem_ctrls2.rdQLenPdf::24                     0                       # What read queue length does an incoming req see
system.mem_ctrls2.rdQLenPdf::25                     0                       # What read queue length does an incoming req see
system.mem_ctrls2.rdQLenPdf::26                     0                       # What read queue length does an incoming req see
system.mem_ctrls2.rdQLenPdf::27                     0                       # What read queue length does an incoming req see
system.mem_ctrls2.rdQLenPdf::28                     0                       # What read queue length does an incoming req see
system.mem_ctrls2.rdQLenPdf::29                     0                       # What read queue length does an incoming req see
system.mem_ctrls2.rdQLenPdf::30                     0                       # What read queue length does an incoming req see
system.mem_ctrls2.rdQLenPdf::31                     0                       # What read queue length does an incoming req see
system.mem_ctrls2.wrQLenPdf::0                      1                       # What write queue length does an incoming req see
system.mem_ctrls2.wrQLenPdf::1                      0                       # What write queue length does an incoming req see
system.mem_ctrls2.wrQLenPdf::2                      0                       # What write queue length does an incoming req see
system.mem_ctrls2.wrQLenPdf::3                      0                       # What write queue length does an incoming req see
system.mem_ctrls2.wrQLenPdf::4                      0                       # What write queue length does an incoming req see
system.mem_ctrls2.wrQLenPdf::5                      0                       # What write queue length does an incoming req see
system.mem_ctrls2.wrQLenPdf::6                      0                       # What write queue length does an incoming req see
system.mem_ctrls2.wrQLenPdf::7                      0                       # What write queue length does an incoming req see
system.mem_ctrls2.wrQLenPdf::8                      0                       # What write queue length does an incoming req see
system.mem_ctrls2.wrQLenPdf::9                      0                       # What write queue length does an incoming req see
system.mem_ctrls2.wrQLenPdf::10                     0                       # What write queue length does an incoming req see
system.mem_ctrls2.wrQLenPdf::11                     0                       # What write queue length does an incoming req see
system.mem_ctrls2.wrQLenPdf::12                     0                       # What write queue length does an incoming req see
system.mem_ctrls2.wrQLenPdf::13                     0                       # What write queue length does an incoming req see
system.mem_ctrls2.wrQLenPdf::14                     0                       # What write queue length does an incoming req see
system.mem_ctrls2.wrQLenPdf::15                     0                       # What write queue length does an incoming req see
system.mem_ctrls2.wrQLenPdf::16                     0                       # What write queue length does an incoming req see
system.mem_ctrls2.wrQLenPdf::17                     0                       # What write queue length does an incoming req see
system.mem_ctrls2.wrQLenPdf::18                     0                       # What write queue length does an incoming req see
system.mem_ctrls2.wrQLenPdf::19                     0                       # What write queue length does an incoming req see
system.mem_ctrls2.wrQLenPdf::20                     0                       # What write queue length does an incoming req see
system.mem_ctrls2.wrQLenPdf::21                     0                       # What write queue length does an incoming req see
system.mem_ctrls2.wrQLenPdf::22                     0                       # What write queue length does an incoming req see
system.mem_ctrls2.wrQLenPdf::23                     0                       # What write queue length does an incoming req see
system.mem_ctrls2.wrQLenPdf::24                     0                       # What write queue length does an incoming req see
system.mem_ctrls2.wrQLenPdf::25                     0                       # What write queue length does an incoming req see
system.mem_ctrls2.wrQLenPdf::26                     0                       # What write queue length does an incoming req see
system.mem_ctrls2.wrQLenPdf::27                     0                       # What write queue length does an incoming req see
system.mem_ctrls2.wrQLenPdf::28                     0                       # What write queue length does an incoming req see
system.mem_ctrls2.wrQLenPdf::29                     0                       # What write queue length does an incoming req see
system.mem_ctrls2.wrQLenPdf::30                     0                       # What write queue length does an incoming req see
system.mem_ctrls2.wrQLenPdf::31                     0                       # What write queue length does an incoming req see
system.mem_ctrls2.wrQLenPdf::32                     0                       # What write queue length does an incoming req see
system.mem_ctrls2.wrQLenPdf::33                     0                       # What write queue length does an incoming req see
system.mem_ctrls2.wrQLenPdf::34                     0                       # What write queue length does an incoming req see
system.mem_ctrls2.wrQLenPdf::35                     0                       # What write queue length does an incoming req see
system.mem_ctrls2.wrQLenPdf::36                     0                       # What write queue length does an incoming req see
system.mem_ctrls2.wrQLenPdf::37                     0                       # What write queue length does an incoming req see
system.mem_ctrls2.wrQLenPdf::38                     0                       # What write queue length does an incoming req see
system.mem_ctrls2.wrQLenPdf::39                     0                       # What write queue length does an incoming req see
system.mem_ctrls2.wrQLenPdf::40                     0                       # What write queue length does an incoming req see
system.mem_ctrls2.wrQLenPdf::41                     0                       # What write queue length does an incoming req see
system.mem_ctrls2.wrQLenPdf::42                     0                       # What write queue length does an incoming req see
system.mem_ctrls2.wrQLenPdf::43                     0                       # What write queue length does an incoming req see
system.mem_ctrls2.wrQLenPdf::44                     0                       # What write queue length does an incoming req see
system.mem_ctrls2.wrQLenPdf::45                     0                       # What write queue length does an incoming req see
system.mem_ctrls2.wrQLenPdf::46                     0                       # What write queue length does an incoming req see
system.mem_ctrls2.wrQLenPdf::47                     0                       # What write queue length does an incoming req see
system.mem_ctrls2.wrQLenPdf::48                     0                       # What write queue length does an incoming req see
system.mem_ctrls2.wrQLenPdf::49                     0                       # What write queue length does an incoming req see
system.mem_ctrls2.wrQLenPdf::50                     0                       # What write queue length does an incoming req see
system.mem_ctrls2.wrQLenPdf::51                     0                       # What write queue length does an incoming req see
system.mem_ctrls2.wrQLenPdf::52                     0                       # What write queue length does an incoming req see
system.mem_ctrls2.wrQLenPdf::53                     0                       # What write queue length does an incoming req see
system.mem_ctrls2.wrQLenPdf::54                     0                       # What write queue length does an incoming req see
system.mem_ctrls2.wrQLenPdf::55                     0                       # What write queue length does an incoming req see
system.mem_ctrls2.wrQLenPdf::56                     0                       # What write queue length does an incoming req see
system.mem_ctrls2.wrQLenPdf::57                     0                       # What write queue length does an incoming req see
system.mem_ctrls2.wrQLenPdf::58                     0                       # What write queue length does an incoming req see
system.mem_ctrls2.wrQLenPdf::59                     0                       # What write queue length does an incoming req see
system.mem_ctrls2.wrQLenPdf::60                     0                       # What write queue length does an incoming req see
system.mem_ctrls2.wrQLenPdf::61                     0                       # What write queue length does an incoming req see
system.mem_ctrls2.wrQLenPdf::62                     0                       # What write queue length does an incoming req see
system.mem_ctrls2.wrQLenPdf::63                     0                       # What write queue length does an incoming req see
system.mem_ctrls2.bytesPerActivate::samples        33299                       # Bytes accessed per row activation
system.mem_ctrls2.bytesPerActivate::mean   104.824770                       # Bytes accessed per row activation
system.mem_ctrls2.bytesPerActivate::gmean    80.305912                       # Bytes accessed per row activation
system.mem_ctrls2.bytesPerActivate::stdev   119.084364                       # Bytes accessed per row activation
system.mem_ctrls2.bytesPerActivate::0-127        27902     83.79%     83.79% # Bytes accessed per row activation
[...]
system.ruby.L2Cache_Controller.L1_PUTX::total       320536                      
system.ruby.L2Cache_Controller.L2_Replacement |           0      0.00%      0.00% |           0      0.00%      0.00% |           1    100.00%    100.00% |           0      0.00%    100.00% |           0      0.00%    100.00% |           0      0.00%    100.00% |           0      0.00%    100.00% |           0      0.00%    100.00% |           0      0.00%    100.00% |           0      0.00%    100.00% |           0      0.00%    100.00% |           0      0.00%    100.00% |           0      0.00%    100.00% |           0      0.00%    100.00% |           0      0.00%    100.00% |           0      0.00%    100.00%
system.ruby.L2Cache_Controller.L2_Replacement::total            1                      
system.ruby.L2Cache_Controller.L2_Replacement_clean |           0      0.00%      0.00% |           1     33.33%     33.33% |           0      0.00%     33.33% |           0      0.00%     33.33% |           1     33.33%     66.67% |           0      0.00%     66.67% |           0      0.00%     66.67% |           0      0.00%     66.67% |           0      0.00%     66.67% |           0      0.00%     66.67% |           0      0.00%     66.67% |           0      0.00%     66.67% |           1     33.33%    100.00% |           0      0.00%    100.00% |           0      0.00%    100.00% |           0      0.00%    100.00%
system.ruby.L2Cache_Controller.L2_Replacement_clean::total            3                      
system.ruby.L2Cache_Controller.Mem_Data  |       13692      6.28%      6.28% |       13552      6.22%     12.50% |       13482      6.18%     18.68% |       13608      6.24%     24.92% |       13426      6.16%     31.08% |       13580      6.23%     37.31% |       13636      6.25%     43.56% |       13650      6.26%     49.82% |       13762      6.31%     56.14% |       13356      6.13%     62.26% |       13566      6.22%     68.48% |       13594      6.24%     74.72% |       13748      6.31%     81.02% |       13804      6.33%     87.36% |       13860      6.36%     93.71% |       13706      6.29%    100.00%
system.ruby.L2Cache_Controller.Mem_Data::total       218022                      
system.ruby.L2Cache_Controller.Mem_Ack   |           0      0.00%      0.00% |           1     25.00%     25.00% |           1     25.00%     50.00% |           0      0.00%     50.00% |           1     25.00%     75.00% |           0      0.00%     75.00% |           0      0.00%     75.00% |           0      0.00%     75.00% |           0      0.00%     75.00% |           0      0.00%     75.00% |           0      0.00%     75.00% |           0      0.00%     75.00% |           1     25.00%    100.00% |           0      0.00%    100.00% |           0      0.00%    100.00% |           0      0.00%    100.00%
system.ruby.L2Cache_Controller.Mem_Ack::total            4                      
system.ruby.L2Cache_Controller.WB_Data   |          56      6.33%      6.33% |          42      4.75%     11.09% |          70      7.92%     19.00% |          56      6.33%     25.34% |          56      6.33%     31.67% |          70      7.92%     39.59% |          56      6.33%     45.93% |          70      7.92%     53.85% |          53      6.00%     59.84% |          69      7.81%     67.65% |          52      5.88%     73.53% |          52      5.88%     79.41% |          42      4.75%     84.16% |          42      4.75%     88.91% |          56      6.33%     95.25% |          42      4.75%    100.00%
system.ruby.L2Cache_Controller.WB_Data::total          884                      
system.ruby.L2Cache_Controller.Unblock   |          56      6.33%      6.33% |          42      4.75%     11.09% |          70      7.92%     19.00% |          56      6.33%     25.34% |          56      6.33%     31.67% |          70      7.92%     39.59% |          56      6.33%     45.93% |          70      7.92%     53.85% |          53      6.00%     59.84% |          69      7.81%     67.65% |          52      5.88%     73.53% |          52      5.88%     79.41% |          42      4.75%     84.16% |          42      4.75%     88.91% |          56      6.33%     95.25% |          42      4.75%    100.00%
system.ruby.L2Cache_Controller.Unblock::total          884                      
system.ruby.L2Cache_Controller.Exclusive_Unblock |       20913      6.21%      6.21% |       20849      6.19%     12.39% |       20726      6.15%     18.54% |       21347      6.33%     24.88% |       20801      6.17%     31.05% |       20688      6.14%     37.19% |       20905      6.20%     43.39% |       21339      6.33%     49.72% |       21144      6.27%     56.00% |       20825      6.18%     62.18% |       21000      6.23%     68.41% |       21460      6.37%     74.78% |       21472      6.37%     81.15% |       21478      6.37%     87.52% |       21317      6.33%     93.85% |       20739      6.15%    100.00%
system.ruby.L2Cache_Controller.Exclusive_Unblock::total       337003                      
system.ruby.L2Cache_Controller.NP.L1_GET_INSTR |        1288      6.30%      6.30% |        1316      6.44%     12.74% |        1442      7.05%     19.79% |        1232      6.03%     25.82% |        1288      6.30%     32.12% |        1274      6.23%     38.36% |        1246      6.10%     44.45% |        1246      6.10%     50.55% |        1302      6.37%     56.92% |        1106      5.41%     62.33% |        1204      5.89%     68.22% |        1232      6.03%     74.25% |        1204      5.89%     80.14% |        1274      6.23%     86.37% |        1470      7.19%     93.56% |        1316      6.44%    100.00%
system.ruby.L2Cache_Controller.NP.L1_GET_INSTR::total        20440                      
system.ruby.L2Cache_Controller.NP.L1_GETS |        6720      6.34%      6.34% |        6468      6.10%     12.44% |        6244      5.89%     18.33% |        6622      6.25%     24.57% |        6370      6.01%     30.58% |        6566      6.19%     36.77% |        6636      6.26%     43.03% |        6664      6.28%     49.31% |        6762      6.38%     55.69% |        6566      6.19%     61.88% |        6664      6.28%     68.17% |        6692      6.31%     74.48% |        6874      6.48%     80.96% |        6818      6.43%     87.39% |        6678      6.30%     93.69% |        6692      6.31%    100.00%
system.ruby.L2Cache_Controller.NP.L1_GETS::total       106036                      
system.ruby.L2Cache_Controller.NP.L1_GETX |        5684      6.21%      6.21% |        5768      6.30%     12.51% |        5796      6.33%     18.84% |        5754      6.29%     25.13% |        5768      6.30%     31.43% |        5740      6.27%     37.70% |        5754      6.29%     43.98% |        5740      6.27%     50.25% |        5698      6.22%     56.48% |        5684      6.21%     62.69% |        5698      6.22%     68.91% |        5670      6.19%     75.10% |        5670      6.19%     81.30% |        5712      6.24%     87.54% |        5712      6.24%     93.78% |        5698      6.22%    100.00%
system.ruby.L2Cache_Controller.NP.L1_GETX::total        91546                      
system.ruby.L2Cache_Controller.SS.L1_GET_INSTR |         146      6.54%      6.54% |          89      3.98%     10.52% |         167      7.48%     17.99% |          79      3.54%     21.53% |         430     19.25%     40.78% |         109      4.88%     45.66% |         242     10.83%     56.49% |         121      5.42%     61.91% |         162      7.25%     69.16% |          72      3.22%     72.38% |         122      5.46%     77.84% |         108      4.83%     82.68% |          69      3.09%     85.77% |          78      3.49%     89.26% |         151      6.76%     96.02% |          89      3.98%    100.00%
system.ruby.L2Cache_Controller.SS.L1_GET_INSTR::total         2234                      
system.ruby.L2Cache_Controller.SS.L1_GETS |          14      3.67%      3.67% |          14      3.67%      7.35% |          29      7.61%     14.96% |          28      7.35%     22.31% |          28      7.35%     29.66% |          28      7.35%     37.01% |          28      7.35%     44.36% |          28      7.35%     51.71% |          39     10.24%     61.94% |          41     10.76%     72.70% |          24      6.30%     79.00% |          24      6.30%     85.30% |          14      3.67%     88.98% |          14      3.67%     92.65% |          14      3.67%     96.33% |          14      3.67%    100.00%
system.ruby.L2Cache_Controller.SS.L1_GETS::total          381                      
system.ruby.L2Cache_Controller.SS.L1_UPGRADE |           0      0.00%      0.00% |           0      0.00%      0.00% |          14    100.00%    100.00% |           0      0.00%    100.00% |           0      0.00%    100.00% |           0      0.00%    100.00% |           0      0.00%    100.00% |           0      0.00%    100.00% |           0      0.00%    100.00% |           0      0.00%    100.00% |           0      0.00%    100.00% |           0      0.00%    100.00% |           0      0.00%    100.00% |           0      0.00%    100.00% |           0      0.00%    100.00% |           0      0.00%    100.00%
system.ruby.L2Cache_Controller.SS.L1_UPGRADE::total           14                      
system.ruby.L2Cache_Controller.M.L1_GET_INSTR |          14     25.00%     25.00% |           0      0.00%     25.00% |           0      0.00%     25.00% |           0      0.00%     25.00% |           0      0.00%     25.00% |           0      0.00%     25.00% |           0      0.00%     25.00% |           0      0.00%     25.00% |          14     25.00%     50.00% |          14     25.00%     75.00% |           0      0.00%     75.00% |           0      0.00%     75.00% |           0      0.00%     75.00% |           0      0.00%     75.00% |          14     25.00%    100.00% |           0      0.00%    100.00%
system.ruby.L2Cache_Controller.M.L1_GET_INSTR::total           56                      
system.ruby.L2Cache_Controller.M.L1_GETS |        3595      6.00%      6.00% |        3589      5.99%     11.99% |        3677      6.14%     18.13% |        4034      6.73%     24.86% |        3685      6.15%     31.01% |        3426      5.72%     36.73% |        3615      6.03%     42.76% |        3855      6.43%     49.19% |        3724      6.21%     55.41% |        3582      5.98%     61.38% |        3642      6.08%     67.46% |        4172      6.96%     74.42% |        3956      6.60%     81.03% |        4078      6.81%     87.83% |        3946      6.59%     94.42% |        3345      5.58%    100.00%
system.ruby.L2Cache_Controller.M.L1_GETS::total        59921                      
system.ruby.L2Cache_Controller.M.L1_GETX |        4914      6.18%      6.18% |        5024      6.32%     12.50% |        4995      6.28%     18.79% |        4937      6.21%     25.00% |        4978      6.26%     31.26% |        4956      6.24%     37.50% |        4900      6.16%     43.66% |        5080      6.39%     50.05% |        4960      6.24%     56.29% |        4993      6.28%     62.57% |        4996      6.29%     68.86% |        4926      6.20%     75.06% |        4972      6.26%     81.31% |        4870      6.13%     87.44% |        4981      6.27%     93.70% |        5004      6.30%    100.00%
system.ruby.L2Cache_Controller.M.L1_GETX::total        79486                      
system.ruby.L2Cache_Controller.M.L2_Replacement |           0      0.00%      0.00% |           0      0.00%      0.00% |           1    100.00%    100.00% |           0      0.00%    100.00% |           0      0.00%    100.00% |           0      0.00%    100.00% |           0      0.00%    100.00% |           0      0.00%    100.00% |           0      0.00%    100.00% |           0      0.00%    100.00% |           0      0.00%    100.00% |           0      0.00%    100.00% |           0      0.00%    100.00% |           0      0.00%    100.00% |           0      0.00%    100.00% |           0      0.00%    100.00%
system.ruby.L2Cache_Controller.M.L2_Replacement::total            1                      
system.ruby.L2Cache_Controller.M.L2_Replacement_clean |           0      0.00%      0.00% |           1     33.33%     33.33% |           0      0.00%     33.33% |           0      0.00%     33.33% |           1     33.33%     66.67% |           0      0.00%     66.67% |           0      0.00%     66.67% |           0      0.00%     66.67% |           0      0.00%     66.67% |           0      0.00%     66.67% |           0      0.00%     66.67% |           0      0.00%     66.67% |           1     33.33%    100.00% |           0      0.00%    100.00% |           0      0.00%    100.00% |           0      0.00%    100.00%
system.ruby.L2Cache_Controller.M.L2_Replacement_clean::total            3                      
system.ruby.L2Cache_Controller.MT.L1_GETS |          56      6.33%      6.33% |          42      4.75%     11.09% |          70      7.92%     19.00% |          56      6.33%     25.34% |          56      6.33%     31.67% |          70      7.92%     39.59% |          56      6.33%     45.93% |          70      7.92%     53.85% |          53      6.00%     59.84% |          69      7.81%     67.65% |          52      5.88%     73.53% |          52      5.88%     79.41% |          42      4.75%     84.16% |          42      4.75%     88.91% |          56      6.33%     95.25% |          42      4.75%    100.00%
system.ruby.L2Cache_Controller.MT.L1_GETS::total          884                      
system.ruby.L2Cache_Controller.MT.L1_PUTX |       19870      6.20%      6.20% |       19819      6.18%     12.38% |       19679      6.14%     18.52% |       20317      6.34%     24.86% |       19764      6.17%     31.03% |       19658      6.13%     37.16% |       19877      6.20%     43.36% |       20309      6.34%     49.70% |       20125      6.28%     55.97% |       19795      6.18%     62.15% |       19979      6.23%     68.38% |       20437      6.38%     74.76% |       20447      6.38%     81.14% |       20450      6.38%     87.52% |       20292      6.33%     93.85% |       19718      6.15%    100.00%
system.ruby.L2Cache_Controller.MT.L1_PUTX::total       320536                      
system.ruby.L2Cache_Controller.M_I.Mem_Ack |           0      0.00%      0.00% |           1     25.00%     25.00% |           1     25.00%     50.00% |           0      0.00%     50.00% |           1     25.00%     75.00% |           0      0.00%     75.00% |           0      0.00%     75.00% |           0      0.00%     75.00% |           0      0.00%     75.00% |           0      0.00%     75.00% |           0      0.00%     75.00% |           0      0.00%     75.00% |           1     25.00%    100.00% |           0      0.00%    100.00% |           0      0.00%    100.00% |           0      0.00%    100.00%
system.ruby.L2Cache_Controller.M_I.Mem_Ack::total            4                      
system.ruby.L2Cache_Controller.ISS.Mem_Data |        6720      6.34%      6.34% |        6468      6.10%     12.44% |        6244      5.89%     18.33% |        6622      6.25%     24.57% |        6370      6.01%     30.58% |        6566      6.19%     36.77% |        6636      6.26%     43.03% |        6664      6.28%     49.31% |        6762      6.38%     55.69% |        6566      6.19%     61.88% |        6664      6.28%     68.17% |        6692      6.31%     74.48% |        6874      6.48%     80.96% |        6818      6.43%     87.39% |        6678      6.30%     93.69% |        6692      6.31%    100.00%
system.ruby.L2Cache_Controller.ISS.Mem_Data::total       106036                      
system.ruby.L2Cache_Controller.IS.Mem_Data |        1288      6.30%      6.30% |        1316      6.44%     12.74% |        1442      7.05%     19.79% |        1232      6.03%     25.82% |        1288      6.30%     32.12% |        1274      6.23%     38.36% |        1246      6.10%     44.45% |        1246      6.10%     50.55% |        1302      6.37%     56.92% |        1106      5.41%     62.33% |        1204      5.89%     68.22% |        1232      6.03%     74.25% |        1204      5.89%     80.14% |        1274      6.23%     86.37% |        1470      7.19%     93.56% |        1316      6.44%    100.00%
system.ruby.L2Cache_Controller.IS.Mem_Data::total        20440                      
system.ruby.L2Cache_Controller.IM.Mem_Data |        5684      6.21%      6.21% |        5768      6.30%     12.51% |        5796      6.33%     18.84% |        5754      6.29%     25.13% |        5768      6.30%     31.43% |        5740      6.27%     37.70% |        5754      6.29%     43.98% |        5740      6.27%     50.25% |        5698      6.22%     56.48% |        5684      6.21%     62.69% |        5698      6.22%     68.91% |        5670      6.19%     75.10% |        5670      6.19%     81.30% |        5712      6.24%     87.54% |        5712      6.24%     93.78% |        5698      6.22%    100.00%
system.ruby.L2Cache_Controller.IM.Mem_Data::total        91546                      
system.ruby.L2Cache_Controller.SS_MB.Exclusive_Unblock |           0      0.00%      0.00% |           0      0.00%      0.00% |          14    100.00%    100.00% |           0      0.00%    100.00% |           0      0.00%    100.00% |           0      0.00%    100.00% |           0      0.00%    100.00% |           0      0.00%    100.00% |           0      0.00%    100.00% |           0      0.00%    100.00% |           0      0.00%    100.00% |           0      0.00%    100.00% |           0      0.00%    100.00% |           0      0.00%    100.00% |           0      0.00%    100.00% |           0      0.00%    100.00%
system.ruby.L2Cache_Controller.SS_MB.Exclusive_Unblock::total           14                      
system.ruby.L2Cache_Controller.MT_MB.Exclusive_Unblock |       20913      6.21%      6.21% |       20849      6.19%     12.39% |       20712      6.15%     18.54% |       21347      6.33%     24.87% |       20801      6.17%     31.05% |       20688      6.14%     37.19% |       20905      6.20%     43.39% |       21339      6.33%     49.72% |       21144      6.27%     56.00% |       20825      6.18%     62.18% |       21000      6.23%     68.41% |       21460      6.37%     74.77% |       21472      6.37%     81.15% |       21478      6.37%     87.52% |       21317      6.33%     93.85% |       20739      6.15%    100.00%
system.ruby.L2Cache_Controller.MT_MB.Exclusive_Unblock::total       336989                      
system.ruby.L2Cache_Controller.MT_IIB.WB_Data |          56      6.33%      6.33% |          42      4.75%     11.09% |          70      7.92%     19.00% |          56      6.33%     25.34% |          56      6.33%     31.67% |          70      7.92%     39.59% |          56      6.33%     45.93% |          70      7.92%     53.85% |          53      6.00%     59.84% |          69      7.81%     67.65% |          52      5.88%     73.53% |          52      5.88%     79.41% |          42      4.75%     84.16% |          42      4.75%     88.91% |          56      6.33%     95.25% |          42      4.75%    100.00%
system.ruby.L2Cache_Controller.MT_IIB.WB_Data::total          884                      
system.ruby.L2Cache_Controller.MT_SB.Unblock |          56      6.33%      6.33% |          42      4.75%     11.09% |          70      7.92%     19.00% |          56      6.33%     25.34% |          56      6.33%     31.67% |          70      7.92%     39.59% |          56      6.33%     45.93% |          70      7.92%     53.85% |          53      6.00%     59.84% |          69      7.81%     67.65% |          52      5.88%     73.53% |          52      5.88%     79.41% |          42      4.75%     84.16% |          42      4.75%     88.91% |          56      6.33%     95.25% |          42      4.75%    100.00%
system.ruby.L2Cache_Controller.MT_SB.Unblock::total          884                      

---------- End Simulation Statistics   ----------
