
---------- Begin Simulation Statistics ----------
sim_seconds                                  0.013373                       # Number of seconds simulated
sim_ticks                                 13373100500                       # Number of ticks simulated
final_tick                                13373100500                       # Number of ticks from beginning of simulation (restored from checkpoints and never reset)
sim_freq                                 1000000000000                       # Frequency of simulated ticks
host_inst_rate                                  34487                       # Simulator instruction rate (inst/s)
host_op_rate                                    60216                       # Simulator op (including micro ops) rate (op/s)
host_tick_rate                               10861177                       # Simulator tick rate (ticks/s)
host_mem_usage                                1758696                       # Number of bytes of host memory used
host_seconds                                  1231.28                       # Real time elapsed on the host
sim_insts                                    42463116                       # Number of instructions simulated
sim_ops                                      74141925                       # Number of ops (including micro ops) simulated
system.voltage_domain.voltage                       1                       # Voltage in Volts
system.clk_domain.clock                          1000                       # Clock period in ticks
system.mem_ctrls0.pwrStateResidencyTicks::UNDEFINED  13373100500                       # Cumulative time (in ticks) in various power states
system.mem_ctrls0.bytes_read::ruby.dir_cntrl0      8685504                       # Number of bytes read from this memory
system.mem_ctrls0.bytes_read::total           8685504                       # Number of bytes read from this memory
system.mem_ctrls0.bytes_written::ruby.dir_cntrl0      1353984                       # Number of bytes written to this memory
system.mem_ctrls0.bytes_written::total        1353984                       # Number of bytes written to this memory
system.mem_ctrls0.num_reads::ruby.dir_cntrl0       135711                       # Number of read requests responded to by this memory
system.mem_ctrls0.num_reads::total             135711                       # Number of read requests responded to by this memory
system.mem_ctrls0.num_writes::ruby.dir_cntrl0        21156                       # Number of write requests responded to by this memory
system.mem_ctrls0.num_writes::total             21156                       # Number of write requests responded to by this memory
system.mem_ctrls0.bw_read::ruby.dir_cntrl0    649475714                       # Total read bandwidth from this memory (bytes/s)
system.mem_ctrls0.bw_read::total            649475714                       # Total read bandwidth from this memory (bytes/s)
system.mem_ctrls0.bw_write::ruby.dir_cntrl0    101246828                       # Write bandwidth from this memory (bytes/s)
system.mem_ctrls0.bw_write::total           101246828                       # Write bandwidth from this memory (bytes/s)
system.mem_ctrls0.bw_total::ruby.dir_cntrl0    750722542                       # Total bandwidth to/from this memory (bytes/s)
system.mem_ctrls0.bw_total::total           750722542                       # Total bandwidth to/from this memory (bytes/s)
system.mem_ctrls0.readReqs                     135711                       # Number of read requests accepted
system.mem_ctrls0.avgNetLat                      0.00                       # Average network latency to DRAM controller
system.mem_ctrls0.writeReqs                     21156                       # Number of write requests accepted
system.mem_ctrls0.readBursts                   135711                       # Number of DRAM read bursts, including those serviced by the write queue
system.mem_ctrls0.writeBursts                   21156                       # Number of DRAM write bursts, including those merged in the write queue
system.mem_ctrls0.bytesReadDRAM               8684352                       # Total number of bytes read from DRAM
system.mem_ctrls0.bytesReadWrQ                   1152                       # Total number of bytes read from write queue
system.mem_ctrls0.bytesWritten                1352832                       # Total number of bytes written to DRAM
system.mem_ctrls0.bytesReadSys                8685504                       # Total read bytes from the system interface side
system.mem_ctrls0.bytesWrittenSys             1353984                       # Total written bytes from the system interface side
system.mem_ctrls0.servicedByWrQ                    18                       # Number of DRAM read bursts serviced by the write queue
system.mem_ctrls0.mergedWrBursts                    0                       # Number of DRAM write bursts merged with an existing one
system.mem_ctrls0.neitherReadNorWriteReqs            0                       # Number of requests that are neither read nor write
system.mem_ctrls0.perBankRdBursts::0             8510                       # Per bank write bursts
system.mem_ctrls0.perBankRdBursts::1             8097                       # Per bank write bursts
system.mem_ctrls0.perBankRdBursts::2             8779                       # Per bank write bursts
system.mem_ctrls0.perBankRdBursts::3             8541                       # Per bank write bursts
system.mem_ctrls0.perBankRdBursts::4             8526                       # Per bank write bursts
system.mem_ctrls0.perBankRdBursts::5             8268                       # Per bank write bursts
system.mem_ctrls0.perBankRdBursts::6             8729                       # Per bank write bursts
system.mem_ctrls0.perBankRdBursts::7             8470                       # Per bank write bursts
system.mem_ctrls0.perBankRdBursts::8             8439                       # Per bank write bursts
system.mem_ctrls0.perBankRdBursts::9             8630                       # Per bank write bursts
system.mem_ctrls0.perBankRdBursts::10            8879                       # Per bank write bursts
system.mem_ctrls0.perBankRdBursts::11            8736                       # Per bank write bursts
system.mem_ctrls0.perBankRdBursts::12            8505                       # Per bank write bursts
system.mem_ctrls0.perBankRdBursts::13            8194                       # Per bank write bursts
system.mem_ctrls0.perBankRdBursts::14            8039                       # Per bank write bursts
system.mem_ctrls0.perBankRdBursts::15            8351                       # Per bank write bursts
system.mem_ctrls0.perBankWrBursts::0             1368                       # Per bank write bursts
system.mem_ctrls0.perBankWrBursts::1             1310                       # Per bank write bursts
system.mem_ctrls0.perBankWrBursts::2             1560                       # Per bank write bursts
system.mem_ctrls0.perBankWrBursts::3             1406                       # Per bank write bursts
system.mem_ctrls0.perBankWrBursts::4             1255                       # Per bank write bursts
system.mem_ctrls0.perBankWrBursts::5             1098                       # Per bank write bursts
system.mem_ctrls0.perBankWrBursts::6             1272                       # Per bank write bursts
system.mem_ctrls0.perBankWrBursts::7             1297                       # Per bank write bursts
system.mem_ctrls0.perBankWrBursts::8             1206                       # Per bank write bursts
system.mem_ctrls0.perBankWrBursts::9             1316                       # Per bank write bursts
system.mem_ctrls0.perBankWrBursts::10            1377                       # Per bank write bursts
system.mem_ctrls0.perBankWrBursts::11            1385                       # Per bank write bursts
system.mem_ctrls0.perBankWrBursts::12            1404                       # Per bank write bursts
system.mem_ctrls0.perBankWrBursts::13            1202                       # Per bank write bursts
system.mem_ctrls0.perBankWrBursts::14            1250                       # Per bank write bursts
system.mem_ctrls0.perBankWrBursts::15            1432                       # Per bank write bursts
system.mem_ctrls0.numRdRetry                        0                       # Number of times read queue was full causing retry
system.mem_ctrls0.numWrRetry                        0                       # Number of times write queue was full causing retry
system.mem_ctrls0.totGap                  13372131500                       # Total gap between requests
system.mem_ctrls0.readPktSize::0                    0                       # Read request sizes (log2)
system.mem_ctrls0.readPktSize::1                    0                       # Read request sizes (log2)
system.mem_ctrls0.readPktSize::2                    0                       # Read request sizes (log2)
system.mem_ctrls0.readPktSize::3                    0                       # Read request sizes (log2)
system.mem_ctrls0.readPktSize::4                    0                       # Read request sizes (log2)
system.mem_ctrls0.readPktSize::5                    0                       # Read request sizes (log2)
system.mem_ctrls0.readPktSize::6               135711                       # Read request sizes (log2)
system.mem_ctrls0.writePktSize::0                   0                       # Write request sizes (log2)
system.mem_ctrls0.writePktSize::1                   0                       # Write request sizes (log2)
system.mem_ctrls0.writePktSize::2                   0                       # Write request sizes (log2)
system.mem_ctrls0.writePktSize::3                   0                       # Write request sizes (log2)
system.mem_ctrls0.writePktSize::4                   0                       # Write request sizes (log2)
system.mem_ctrls0.writePktSize::5                   0                       # Write request sizes (log2)
system.mem_ctrls0.writePktSize::6               21156                       # Write request sizes (log2)
system.mem_ctrls0.rdQLenPdf::0                  67872                       # What read queue length does an incoming req see
system.mem_ctrls0.rdQLenPdf::1                  35028                       # What read queue length does an incoming req see
system.mem_ctrls0.rdQLenPdf::2                  17304                       # What read queue length does an incoming req see
system.mem_ctrls0.rdQLenPdf::3                   8532                       # What read queue length does an incoming req see
system.mem_ctrls0.rdQLenPdf::4                   4023                       # What read queue length does an incoming req see
system.mem_ctrls0.rdQLenPdf::5                   1780                       # What read queue length does an incoming req see
system.mem_ctrls0.rdQLenPdf::6                    706                       # What read queue length does an incoming req see
system.mem_ctrls0.rdQLenPdf::7                    288                       # What read queue length does an incoming req see
system.mem_ctrls0.rdQLenPdf::8                    108                       # What read queue length does an incoming req see
system.mem_ctrls0.rdQLenPdf::9                     46                       # What read queue length does an incoming req see
system.mem_ctrls0.rdQLenPdf::10                     6                       # What read queue length does an incoming req see
system.mem_ctrls0.rdQLenPdf::11                     0                       # What read queue length does an incoming req see
system.mem_ctrls0.rdQLenPdf::12                     0                       # What read queue length does an incoming req see
system.mem_ctrls0.rdQLenPdf::13                     0                       # What read queue length does an incoming req see
system.mem_ctrls0.rdQLenPdf::14                     0                       # What read queue length does an incoming req see
system.mem_ctrls0.rdQLenPdf::15                     0                       # What read queue length does an incoming req see
system.mem_ctrls0.rdQLenPdf::16                     0                       # What read queue length does an incoming req see
system.mem_ctrls0.rdQLenPdf::17                     0                       # What read queue length does an incoming req see
system.mem_ctrls0.rdQLenPdf::18                     0                       # What read queue length does an incoming req see
system.mem_ctrls0.rdQLenPdf::19                     0                       # What read queue length does an incoming req see
system.mem_ctrls0.rdQLenPdf::20                     0                       # What read queue length does an incoming req see
system.mem_ctrls0.rdQLenPdf::21                     0                       # What read queue length does an incoming req see
system.mem_ctrls0.rdQLenPdf::22                     0                       # What read queue length does an incoming req see
system.mem_ctrls0.rdQLenPdf::23                     0                       # What read queue length does an incoming req see
system.mem_ctrls0.rdQLenPdf::24                     0                       # What read queue length does an incoming req see
system.mem_ctrls0.rdQLenPdf::25                     0                       # What read queue length does an incoming req see
system.mem_ctrls0.rdQLenPdf::26                     0                       # What read queue length does an incoming req see
system.mem_ctrls0.rdQLenPdf::27                     0                       # What read queue length does an incoming req see
system.mem_ctrls0.rdQLenPdf::28                     0                       # What read queue length does an incoming req see
system.mem_ctrls0.rdQLenPdf::29                     0                       # What read queue length does an incoming req see
system.mem_ctrls0.rdQLenPdf::30                     0                       # What read queue length does an incoming req see
system.mem_ctrls0.rdQLenPdf::31                     0                       # What read queue length does an incoming req see
system.mem_ctrls0.wrQLenPdf::0                      1                       # What write queue length does an incoming req see
system.mem_ctrls0.wrQLenPdf::1                      1                       # What write queue length does an incoming req see
system.mem_ctrls0.wrQLenPdf::2                      1                       # What write queue length does an incoming req see
system.mem_ctrls0.wrQLenPdf::3                      1                       # What write queue length does an incoming req see
system.mem_ctrls0.wrQLenPdf::4                      1                       # What write queue length does an incoming req see
system.mem_ctrls0.wrQLenPdf::5                      1                       # What write queue length does an incoming req see
system.mem_ctrls0.wrQLenPdf::6                      1                       # What write queue length does an incoming req see
system.mem_ctrls0.wrQLenPdf::7                      1                       # What write queue length does an incoming req see
system.mem_ctrls0.wrQLenPdf::8                      1                       # What write queue length does an incoming req see
system.mem_ctrls0.wrQLenPdf::9                      1                       # What write queue length does an incoming req see
system.mem_ctrls0.wrQLenPdf::10                     1                       # What write queue length does an incoming req see
system.mem_ctrls0.wrQLenPdf::11                     1                       # What write queue length does an incoming req see
system.mem_ctrls0.wrQLenPdf::12                     1                       # What write queue length does an incoming req see
system.mem_ctrls0.wrQLenPdf::13                     1                       # What write queue length does an incoming req see
system.mem_ctrls0.wrQLenPdf::14                     1                       # What write queue length does an incoming req see
system.mem_ctrls0.wrQLenPdf::15                   482                       # What write queue length does an incoming req see
system.mem_ctrls0.wrQLenPdf::16                   533                       # What write queue length does an incoming req see
system.mem_ctrls0.wrQLenPdf::17                   915                       # What write queue length does an incoming req see
system.mem_ctrls0.wrQLenPdf::18                  1200                       # What write queue length does an incoming req see
system.mem_ctrls0.wrQLenPdf::19                  1287                       # What write queue length does an incoming req see
system.mem_ctrls0.wrQLenPdf::20                  1292                       # What write queue length does an incoming req see
system.mem_ctrls0.wrQLenPdf::21                  1291                       # What write queue length does an incoming req see
system.mem_ctrls0.wrQLenPdf::22                  1286                       # What write queue length does an incoming req see
system.mem_ctrls0.wrQLenPdf::23                  1287                       # What write queue length does an incoming req see
system.mem_ctrls0.wrQLenPdf::24                  1282                       # What write queue length does an incoming req see
system.mem_ctrls0.wrQLenPdf::25                  1297                       # What write queue length does an incoming req see
system.mem_ctrls0.wrQLenPdf::26                  1295                       # What write queue length does an incoming req see
system.mem_ctrls0.wrQLenPdf::27                  1290                       # What write queue length does an incoming req see
system.mem_ctrls0.wrQLenPdf::28                  1296                       # What write queue length does an incoming req see
system.mem_ctrls0.wrQLenPdf::29                  1282                       # What write queue length does an incoming req see
system.mem_ctrls0.wrQLenPdf::30                  1277                       # What write queue length does an incoming req see
system.mem_ctrls0.wrQLenPdf::31                  1261                       # What write queue length does an incoming req see
system.mem_ctrls0.wrQLenPdf::32                  1256                       # What write queue length does an incoming req see
system.mem_ctrls0.wrQLenPdf::33                    22                       # What write queue length does an incoming req see
system.mem_ctrls0.wrQLenPdf::34                    10                       # What write queue length does an incoming req see
system.mem_ctrls0.wrQLenPdf::35                     0                       # What write queue length does an incoming req see
system.mem_ctrls0.wrQLenPdf::36                     0                       # What write queue length does an incoming req see
system.mem_ctrls0.wrQLenPdf::37                     0                       # What write queue length does an incoming req see
system.mem_ctrls0.wrQLenPdf::38                     0                       # What write queue length does an incoming req see
system.mem_ctrls0.wrQLenPdf::39                     0                       # What write queue length does an incoming req see
system.mem_ctrls0.wrQLenPdf::40                     0                       # What write queue length does an incoming req see
system.mem_ctrls0.wrQLenPdf::41                     0                       # What write queue length does an incoming req see
system.mem_ctrls0.wrQLenPdf::42                     0                       # What write queue length does an incoming req see
system.mem_ctrls0.wrQLenPdf::43                     0                       # What write queue length does an incoming req see
system.mem_ctrls0.wrQLenPdf::44                     0                       # What write queue length does an incoming req see
system.mem_ctrls0.wrQLenPdf::45                     0                       # What write queue length does an incoming req see
system.mem_ctrls0.wrQLenPdf::46                     0                       # What write queue length does an incoming req see
system.mem_ctrls0.wrQLenPdf::47                     0                       # What write queue length does an incoming req see
system.mem_ctrls0.wrQLenPdf::48                     0                       # What write queue length does an incoming req see
system.mem_ctrls0.wrQLenPdf::49                     0                       # What write queue length does an incoming req see
system.mem_ctrls0.wrQLenPdf::50                     0                       # What write queue length does an incoming req see
system.mem_ctrls0.wrQLenPdf::51                     0                       # What write queue length does an incoming req see
system.mem_ctrls0.wrQLenPdf::52                     0                       # What write queue length does an incoming req see
system.mem_ctrls0.wrQLenPdf::53                     0                       # What write queue length does an incoming req see
system.mem_ctrls0.wrQLenPdf::54                     0                       # What write queue length does an incoming req see
system.mem_ctrls0.wrQLenPdf::55                     0                       # What write queue length does an incoming req see
system.mem_ctrls0.wrQLenPdf::56                     0                       # What write queue length does an incoming req see
system.mem_ctrls0.wrQLenPdf::57                     0                       # What write queue length does an incoming req see
system.mem_ctrls0.wrQLenPdf::58                     0                       # What write queue length does an incoming req see
system.mem_ctrls0.wrQLenPdf::59                     0                       # What write queue length does an incoming req see
system.mem_ctrls0.wrQLenPdf::60                     0                       # What write queue length does an incoming req see
system.mem_ctrls0.wrQLenPdf::61                     0                       # What write queue length does an incoming req see
system.mem_ctrls0.wrQLenPdf::62                     0                       # What write queue length does an incoming req see
system.mem_ctrls0.wrQLenPdf::63                     0                       # What write queue length does an incoming req see
system.mem_ctrls0.bytesPerActivate::samples        79405                       # Bytes accessed per row activation
system.mem_ctrls0.bytesPerActivate::mean   126.396071                       # Bytes accessed per row activation
system.mem_ctrls0.bytesPerActivate::gmean    93.546615                       # Bytes accessed per row activation
system.mem_ctrls0.bytesPerActivate::stdev   143.414434                       # Bytes accessed per row activation
system.mem_ctrls0.bytesPerActivate::0-127        54119     68.16%     68.16% # Bytes accessed per row activation
system.mem_ctrls0.bytesPerActivate::128-255        15663     19.73%     87.88% # Bytes accessed per row activation
system.mem_ctrls0.bytesPerActivate::256-383         3701      4.66%     92.54% # Bytes accessed per row activation
system.mem_ctrls0.bytesPerActivate::384-511         2129      2.68%     95.22% # Bytes accessed per row activation
system.mem_ctrls0.bytesPerActivate::512-639         1435      1.81%     97.03% # Bytes accessed per row activation
system.mem_ctrls0.bytesPerActivate::640-767         1742      2.19%     99.22% # Bytes accessed per row activation
system.mem_ctrls0.bytesPerActivate::768-895          129      0.16%     99.39% # Bytes accessed per row activation
system.mem_ctrls0.bytesPerActivate::896-1023           89      0.11%     99.50% # Bytes accessed per row activation
system.mem_ctrls0.bytesPerActivate::1024-1151          398      0.50%    100.00% # Bytes accessed per row activation
system.mem_ctrls0.bytesPerActivate::total        79405                       # Bytes accessed per row activation
system.mem_ctrls0.rdPerTurnAround::samples         1251                       # Reads before turning the bus around for writes
system.mem_ctrls0.rdPerTurnAround::mean    108.464428                       # Reads before turning the bus around for writes
system.mem_ctrls0.rdPerTurnAround::gmean    31.763876                       # Reads before turning the bus around for writes
system.mem_ctrls0.rdPerTurnAround::stdev  1871.147346                       # Reads before turning the bus around for writes
system.mem_ctrls0.rdPerTurnAround::0-4095         1250     99.92%     99.92% # Reads before turning the bus around for writes
system.mem_ctrls0.rdPerTurnAround::65536-69631            1      0.08%    100.00% # Reads before turning the bus around for writes
system.mem_ctrls0.rdPerTurnAround::total         1251                       # Reads before turning the bus around for writes
system.mem_ctrls0.wrPerTurnAround::samples         1251                       # Writes before turning the bus around for reads
system.mem_ctrls0.wrPerTurnAround::mean     16.896882                       # Writes before turning the bus around for reads
system.mem_ctrls0.wrPerTurnAround::gmean    16.863184                       # Writes before turning the bus around for reads
system.mem_ctrls0.wrPerTurnAround::stdev     1.079888                       # Writes before turning the bus around for reads
system.mem_ctrls0.wrPerTurnAround::16             708     56.59%     56.59% # Writes before turning the bus around for reads
system.mem_ctrls0.wrPerTurnAround::17              47      3.76%     60.35% # Writes before turning the bus around for reads
system.mem_ctrls0.wrPerTurnAround::18             421     33.65%     94.00% # Writes before turning the bus around for reads
system.mem_ctrls0.wrPerTurnAround::19              68      5.44%     99.44% # Writes before turning the bus around for reads
system.mem_ctrls0.wrPerTurnAround::20               6      0.48%     99.92% # Writes before turning the bus around for reads
system.mem_ctrls0.wrPerTurnAround::21               1      0.08%    100.00% # Writes before turning the bus around for reads
system.mem_ctrls0.wrPerTurnAround::total         1251                       # Writes before turning the bus around for reads
system.mem_ctrls0.totQLat                  3711898750                       # Total ticks spent queuing
system.mem_ctrls0.totMemAccLat             6256142500                       # Total ticks spent from burst creation until serviced by the DRAM
system.mem_ctrls0.totBusLat                 678465000                       # Total ticks spent in databus transfers
system.mem_ctrls0.avgQLat                    27355.12                       # Average queueing delay per DRAM burst
system.mem_ctrls0.avgBusLat                   5000.00                       # Average bus latency per DRAM burst
system.mem_ctrls0.avgMemAccLat               46105.12                       # Average memory access latency per DRAM burst
system.mem_ctrls0.avgRdBW                      649.39                       # Average DRAM read bandwidth in MiByte/s
system.mem_ctrls0.avgWrBW                      101.16                       # Average achieved write bandwidth in MiByte/s
system.mem_ctrls0.avgRdBWSys                   649.48                       # Average system read bandwidth in MiByte/s
system.mem_ctrls0.avgWrBWSys                   101.25                       # Average system write bandwidth in MiByte/s
system.mem_ctrls0.peakBW                     12800.00                       # Theoretical peak bandwidth in MiByte/s
system.mem_ctrls0.busUtil                        5.86                       # Data bus utilization in percentage
system.mem_ctrls0.busUtilRead                    5.07                       # Data bus utilization in percentage for reads
system.mem_ctrls0.busUtilWrite                   0.79                       # Data bus utilization in percentage for writes
system.mem_ctrls0.avgRdQLen                      1.55                       # Average read queue length when enqueuing
system.mem_ctrls0.avgWrQLen                     10.78                       # Average write queue length when enqueuing
system.mem_ctrls0.readRowHits                   70814                       # Number of row buffer hits during reads
system.mem_ctrls0.writeRowHits                   6604                       # Number of row buffer hits during writes
system.mem_ctrls0.readRowHitRate                52.19                       # Row buffer hit rate for reads
system.mem_ctrls0.writeRowHitRate               31.22                       # Row buffer hit rate for writes
system.mem_ctrls0.avgGap                     85245.03                       # Average gap between requests
system.mem_ctrls0.pageHitRate                   49.36                       # Row buffer hit rate, read and write combined
system.mem_ctrls0_0.actEnergy               285992700                       # Energy for activate commands per rank (pJ)
system.mem_ctrls0_0.preEnergy               151993545                       # Energy for precharge commands per rank (pJ)
system.mem_ctrls0_0.readEnergy              484948800                       # Energy for read commands per rank (pJ)
system.mem_ctrls0_0.writeEnergy              55154520                       # Energy for write commands per rank (pJ)
system.mem_ctrls0_0.refreshEnergy        1059639360.000000                       # Energy for refresh commands per rank (pJ)
system.mem_ctrls0_0.actBackEnergy          1358807040                       # Energy for active background per rank (pJ)
system.mem_ctrls0_0.preBackEnergy            24783840                       # Energy for precharge background per rank (pJ)
system.mem_ctrls0_0.actPowerDownEnergy     4396427670                       # Energy for active power-down per rank (pJ)
system.mem_ctrls0_0.prePowerDownEnergy      239729760                       # Energy for precharge power-down per rank (pJ)
system.mem_ctrls0_0.selfRefreshEnergy        24046650                       # Energy for self refresh per rank (pJ)
system.mem_ctrls0_0.totalEnergy            8081569785                       # Total energy per rank (pJ)
system.mem_ctrls0_0.averagePower           604.315307                       # Core power per rank (mW)
system.mem_ctrls0_0.totalIdleTime         10328159000                       # Total Idle time Per DRAM Rank
system.mem_ctrls0_0.memoryStateTime::IDLE     13602000                       # Time in different power states
system.mem_ctrls0_0.memoryStateTime::REF    448348000                       # Time in different power states
system.mem_ctrls0_0.memoryStateTime::SREF     63030750                       # Time in different power states
system.mem_ctrls0_0.memoryStateTime::PRE_PDN    624133250                       # Time in different power states
system.mem_ctrls0_0.memoryStateTime::ACT   2582115250                       # Time in different power states
system.mem_ctrls0_0.memoryStateTime::ACT_PDN   9641871250                       # Time in different power states
system.mem_ctrls0_1.actEnergy               281016120                       # Energy for activate commands per rank (pJ)
system.mem_ctrls0_1.preEnergy               149348430                       # Energy for precharge commands per rank (pJ)
system.mem_ctrls0_1.readEnergy              483899220                       # Energy for read commands per rank (pJ)
system.mem_ctrls0_1.writeEnergy              55185840                       # Energy for write commands per rank (pJ)
system.mem_ctrls0_1.refreshEnergy        1062097920.000000                       # Energy for refresh commands per rank (pJ)
system.mem_ctrls0_1.actBackEnergy          1343694630                       # Energy for active background per rank (pJ)
system.mem_ctrls0_1.preBackEnergy            25764960                       # Energy for precharge background per rank (pJ)
system.mem_ctrls0_1.actPowerDownEnergy     4354370220                       # Energy for active power-down per rank (pJ)
system.mem_ctrls0_1.prePowerDownEnergy      270945600                       # Energy for precharge power-down per rank (pJ)
system.mem_ctrls0_1.selfRefreshEnergy        39506145                       # Energy for self refresh per rank (pJ)
system.mem_ctrls0_1.totalEnergy            8065948935                       # Total energy per rank (pJ)
system.mem_ctrls0_1.averagePower           603.147227                       # Core power per rank (mW)
system.mem_ctrls0_1.totalIdleTime         10358081500                       # Total Idle time Per DRAM Rank
system.mem_ctrls0_1.memoryStateTime::IDLE     16144750                       # Time in different power states
system.mem_ctrls0_1.memoryStateTime::REF    449436000                       # Time in different power states
system.mem_ctrls0_1.memoryStateTime::SREF    104395000                       # Time in different power states
system.mem_ctrls0_1.memoryStateTime::PRE_PDN    705468500                       # Time in different power states
system.mem_ctrls0_1.memoryStateTime::ACT   2547939500                       # Time in different power states
system.mem_ctrls0_1.memoryStateTime::ACT_PDN   9549716750                       # Time in different power states
system.mem_ctrls1.pwrStateResidencyTicks::UNDEFINED  13373100500                       # Cumulative time (in ticks) in various power states
system.mem_ctrls1.bytes_read::ruby.dir_cntrl1      8760384                       # Number of bytes read from this memory
system.mem_ctrls1.bytes_read::total           8760384                       # Number of bytes read from this memory
system.mem_ctrls1.bytes_written::ruby.dir_cntrl1      1379072                       # Number of bytes written to this memory
system.mem_ctrls1.bytes_written::total        1379072                       # Number of bytes written to this memory
system.mem_ctrls1.num_reads::ruby.dir_cntrl1       136881                       # Number of read requests responded to by this memory
system.mem_ctrls1.num_reads::total             136881                       # Number of read requests responded to by this memory
system.mem_ctrls1.num_writes::ruby.dir_cntrl1        21548                       # Number of write requests responded to by this memory
system.mem_ctrls1.num_writes::total             21548                       # Number of write requests responded to by this memory
system.mem_ctrls1.bw_read::ruby.dir_cntrl1    655075014                       # Total read bandwidth from this memory (bytes/s)
system.mem_ctrls1.bw_read::total            655075014                       # Total read bandwidth from this memory (bytes/s)
system.mem_ctrls1.bw_write::ruby.dir_cntrl1    103122832                       # Write bandwidth from this memory (bytes/s)
system.mem_ctrls1.bw_write::total           103122832                       # Write bandwidth from this memory (bytes/s)
system.mem_ctrls1.bw_total::ruby.dir_cntrl1    758197846                       # Total bandwidth to/from this memory (bytes/s)
system.mem_ctrls1.bw_total::total           758197846                       # Total bandwidth to/from this memory (bytes/s)
system.mem_ctrls1.readReqs                     136881                       # Number of read requests accepted
system.mem_ctrls1.avgNetLat                      0.00                       # Average network latency to DRAM controller
system.mem_ctrls1.writeReqs                     21548                       # Number of write requests accepted
system.mem_ctrls1.readBursts                   136881                       # Number of DRAM read bursts, including those serviced by the write queue
system.mem_ctrls1.writeBursts                   21548                       # Number of DRAM write bursts, including those merged in the write queue
system.mem_ctrls1.bytesReadDRAM               8759552                       # Total number of bytes read from DRAM
system.mem_ctrls1.bytesReadWrQ                    832                       # Total number of bytes read from write queue
system.mem_ctrls1.bytesWritten                1377728                       # Total number of bytes written to DRAM
system.mem_ctrls1.bytesReadSys                8760384                       # Total read bytes from the system interface side
system.mem_ctrls1.bytesWrittenSys             1379072                       # Total written bytes from the system interface side
system.mem_ctrls1.servicedByWrQ                    13                       # Number of DRAM read bursts serviced by the write queue
system.mem_ctrls1.mergedWrBursts                    0                       # Number of DRAM write bursts merged with an existing one
system.mem_ctrls1.neitherReadNorWriteReqs            0                       # Number of requests that are neither read nor write
system.mem_ctrls1.perBankRdBursts::0             8599                       # Per bank write bursts
system.mem_ctrls1.perBankRdBursts::1             8201                       # Per bank write bursts
system.mem_ctrls1.perBankRdBursts::2             8821                       # Per bank write bursts
system.mem_ctrls1.perBankRdBursts::3             8640                       # Per bank write bursts
system.mem_ctrls1.perBankRdBursts::4             8614                       # Per bank write bursts
system.mem_ctrls1.perBankRdBursts::5             8345                       # Per bank write bursts
system.mem_ctrls1.perBankRdBursts::6             8751                       # Per bank write bursts
system.mem_ctrls1.perBankRdBursts::7             8574                       # Per bank write bursts
system.mem_ctrls1.perBankRdBursts::8             8528                       # Per bank write bursts
system.mem_ctrls1.perBankRdBursts::9             8691                       # Per bank write bursts
system.mem_ctrls1.perBankRdBursts::10            8920                       # Per bank write bursts
system.mem_ctrls1.perBankRdBursts::11            8835                       # Per bank write bursts
system.mem_ctrls1.perBankRdBursts::12            8630                       # Per bank write bursts
system.mem_ctrls1.perBankRdBursts::13            8244                       # Per bank write bursts
system.mem_ctrls1.perBankRdBursts::14            8077                       # Per bank write bursts
system.mem_ctrls1.perBankRdBursts::15            8398                       # Per bank write bursts
system.mem_ctrls1.perBankWrBursts::0             1380                       # Per bank write bursts
system.mem_ctrls1.perBankWrBursts::1             1331                       # Per bank write bursts
system.mem_ctrls1.perBankWrBursts::2             1543                       # Per bank write bursts
system.mem_ctrls1.perBankWrBursts::3             1464                       # Per bank write bursts
system.mem_ctrls1.perBankWrBursts::4             1304                       # Per bank write bursts
system.mem_ctrls1.perBankWrBursts::5             1107                       # Per bank write bursts
system.mem_ctrls1.perBankWrBursts::6             1285                       # Per bank write bursts
system.mem_ctrls1.perBankWrBursts::7             1344                       # Per bank write bursts
system.mem_ctrls1.perBankWrBursts::8             1225                       # Per bank write bursts
system.mem_ctrls1.perBankWrBursts::9             1338                       # Per bank write bursts
system.mem_ctrls1.perBankWrBursts::10            1405                       # Per bank write bursts
system.mem_ctrls1.perBankWrBursts::11            1430                       # Per bank write bursts
system.mem_ctrls1.perBankWrBursts::12            1419                       # Per bank write bursts
system.mem_ctrls1.perBankWrBursts::13            1230                       # Per bank write bursts
system.mem_ctrls1.perBankWrBursts::14            1275                       # Per bank write bursts
system.mem_ctrls1.perBankWrBursts::15            1447                       # Per bank write bursts
system.mem_ctrls1.numRdRetry                        0                       # Number of times read queue was full causing retry
system.mem_ctrls1.numWrRetry                        0                       # Number of times write queue was full causing retry
system.mem_ctrls1.totGap                  13372656500                       # Total gap between requests
system.mem_ctrls1.readPktSize::0                    0                       # Read request sizes (log2)
system.mem_ctrls1.readPktSize::1                    0                       # Read request sizes (log2)
system.mem_ctrls1.readPktSize::2                    0                       # Read request sizes (log2)
system.mem_ctrls1.readPktSize::3                    0                       # Read request sizes (log2)
system.mem_ctrls1.readPktSize::4                    0                       # Read request sizes (log2)
system.mem_ctrls1.readPktSize::5                    0                       # Read request sizes (log2)
system.mem_ctrls1.readPktSize::6               136881                       # Read request sizes (log2)
system.mem_ctrls1.writePktSize::0                   0                       # Write request sizes (log2)
system.mem_ctrls1.writePktSize::1                   0                       # Write request sizes (log2)
system.mem_ctrls1.writePktSize::2                   0                       # Write request sizes (log2)
system.mem_ctrls1.writePktSize::3                   0                       # Write request sizes (log2)
system.mem_ctrls1.writePktSize::4                   0                       # Write request sizes (log2)
system.mem_ctrls1.writePktSize::5                   0                       # Write request sizes (log2)
system.mem_ctrls1.writePktSize::6               21548                       # Write request sizes (log2)
system.mem_ctrls1.rdQLenPdf::0                  67795                       # What read queue length does an incoming req see
system.mem_ctrls1.rdQLenPdf::1                  35661                       # What read queue length does an incoming req see
system.mem_ctrls1.rdQLenPdf::2                  17828                       # What read queue length does an incoming req see
system.mem_ctrls1.rdQLenPdf::3                   8478                       # What read queue length does an incoming req see
system.mem_ctrls1.rdQLenPdf::4                   3992                       # What read queue length does an incoming req see
system.mem_ctrls1.rdQLenPdf::5                   1794                       # What read queue length does an incoming req see
system.mem_ctrls1.rdQLenPdf::6                    779                       # What read queue length does an incoming req see
system.mem_ctrls1.rdQLenPdf::7                    341                       # What read queue length does an incoming req see
system.mem_ctrls1.rdQLenPdf::8                    137                       # What read queue length does an incoming req see
system.mem_ctrls1.rdQLenPdf::9                     49                       # What read queue length does an incoming req see
system.mem_ctrls1.rdQLenPdf::10                    11                       # What read queue length does an incoming req see
system.mem_ctrls1.rdQLenPdf::11                     2                       # What read queue length does an incoming req see
system.mem_ctrls1.rdQLenPdf::12                     1                       # What read queue length does an incoming req see
system.mem_ctrls1.rdQLenPdf::13                     0                       # What read queue length does an incoming req see
system.mem_ctrls1.rdQLenPdf::14                     0                       # What read queue length does an incoming req see
system.mem_ctrls1.rdQLenPdf::15                     0                       # What read queue length does an incoming req see
system.mem_ctrls1.rdQLenPdf::16                     0                       # What read queue length does an incoming req see
system.mem_ctrls1.rdQLenPdf::17                     0                       # What read queue length does an incoming req see
system.mem_ctrls1.rdQLenPdf::18                     0                       # What read queue length does an incoming req see
system.mem_ctrls1.rdQLenPdf::19                     0                       # What read queue length does an incoming req see
system.mem_ctrls1.rdQLenPdf::20                     0                       # What read queue length does an incoming req see
system.mem_ctrls1.rdQLenPdf::21                     0                       # What read queue length does an incoming req see
system.mem_ctrls1.rdQLenPdf::22                     0                       # What read queue length does an incoming req see
system.mem_ctrls1.rdQLenPdf::23                     0                       # What read queue length does an incoming req see
system.mem_ctrls1.rdQLenPdf::24                     0                       # What read queue length does an incoming req see
system.mem_ctrls1.rdQLenPdf::25                     0                       # What read queue length does an incoming req see
system.mem_ctrls1.rdQLenPdf::26                     0                       # What read queue length does an incoming req see
system.mem_ctrls1.rdQLenPdf::27                     0                       # What read queue length does an incoming req see
system.mem_ctrls1.rdQLenPdf::28                     0                       # What read queue length does an incoming req see
system.mem_ctrls1.rdQLenPdf::29                     0                       # What read queue length does an incoming req see
system.mem_ctrls1.rdQLenPdf::30                     0                       # What read queue length does an incoming req see
system.mem_ctrls1.rdQLenPdf::31                     0                       # What read queue length does an incoming req see
system.mem_ctrls1.wrQLenPdf::0                      1                       # What write queue length does an incoming req see
system.mem_ctrls1.wrQLenPdf::1                      1                       # What write queue length does an incoming req see
system.mem_ctrls1.wrQLenPdf::2                      1                       # What write queue length does an incoming req see
system.mem_ctrls1.wrQLenPdf::3                      1                       # What write queue length does an incoming req see
system.mem_ctrls1.wrQLenPdf::4                      1                       # What write queue length does an incoming req see
system.mem_ctrls1.wrQLenPdf::5                      1                       # What write queue length does an incoming req see
system.mem_ctrls1.wrQLenPdf::6                      1                       # What write queue length does an incoming req see
system.mem_ctrls1.wrQLenPdf::7                      1                       # What write queue length does an incoming req see
system.mem_ctrls1.wrQLenPdf::8                      1                       # What write queue length does an incoming req see
system.mem_ctrls1.wrQLenPdf::9                      1                       # What write queue length does an incoming req see
system.mem_ctrls1.wrQLenPdf::10                     1                       # What write queue length does an incoming req see
system.mem_ctrls1.wrQLenPdf::11                     1                       # What write queue length does an incoming req see
system.mem_ctrls1.wrQLenPdf::12                     1                       # What write queue length does an incoming req see
system.mem_ctrls1.wrQLenPdf::13                     1                       # What write queue length does an incoming req see
system.mem_ctrls1.wrQLenPdf::14                     1                       # What write queue length does an incoming req see
system.mem_ctrls1.wrQLenPdf::15                   464                       # What write queue length does an incoming req see
system.mem_ctrls1.wrQLenPdf::16                   517                       # What write queue length does an incoming req see
system.mem_ctrls1.wrQLenPdf::17                   931                       # What write queue length does an incoming req see
system.mem_ctrls1.wrQLenPdf::18                  1223                       # What write queue length does an incoming req see
system.mem_ctrls1.wrQLenPdf::19                  1322                       # What write queue length does an incoming req see
system.mem_ctrls1.wrQLenPdf::20                  1312                       # What write queue length does an incoming req see
system.mem_ctrls1.wrQLenPdf::21                  1311                       # What write queue length does an incoming req see
system.mem_ctrls1.wrQLenPdf::22                  1318                       # What write queue length does an incoming req see
system.mem_ctrls1.wrQLenPdf::23                  1312                       # What write queue length does an incoming req see
system.mem_ctrls1.wrQLenPdf::24                  1315                       # What write queue length does an incoming req see
system.mem_ctrls1.wrQLenPdf::25                  1316                       # What write queue length does an incoming req see
system.mem_ctrls1.wrQLenPdf::26                  1322                       # What write queue length does an incoming req see
system.mem_ctrls1.wrQLenPdf::27                  1315                       # What write queue length does an incoming req see
system.mem_ctrls1.wrQLenPdf::28                  1332                       # What write queue length does an incoming req see
system.mem_ctrls1.wrQLenPdf::29                  1309                       # What write queue length does an incoming req see
system.mem_ctrls1.wrQLenPdf::30                  1307                       # What write queue length does an incoming req see
system.mem_ctrls1.wrQLenPdf::31                  1289                       # What write queue length does an incoming req see
system.mem_ctrls1.wrQLenPdf::32                  1277                       # What write queue length does an incoming req see
system.mem_ctrls1.wrQLenPdf::33                    31                       # What write queue length does an incoming req see
system.mem_ctrls1.wrQLenPdf::34                    10                       # What write queue length does an incoming req see
system.mem_ctrls1.wrQLenPdf::35                     0                       # What write queue length does an incoming req see
system.mem_ctrls1.wrQLenPdf::36                     0                       # What write queue length does an incoming req see
system.mem_ctrls1.wrQLenPdf::37                     0                       # What write queue length does an incoming req see
system.mem_ctrls1.wrQLenPdf::38                     0                       # What write queue length does an incoming req see
system.mem_ctrls1.wrQLenPdf::39                     0                       # What write queue length does an incoming req see
system.mem_ctrls1.wrQLenPdf::40                     0                       # What write queue length does an incoming req see
system.mem_ctrls1.wrQLenPdf::41                     0                       # What write queue length does an incoming req see
system.mem_ctrls1.wrQLenPdf::42                     0                       # What write queue length does an incoming req see
system.mem_ctrls1.wrQLenPdf::43                     0                       # What write queue length does an incoming req see
system.mem_ctrls1.wrQLenPdf::44                     0                       # What write queue length does an incoming req see
system.mem_ctrls1.wrQLenPdf::45                     0                       # What write queue length does an incoming req see
system.mem_ctrls1.wrQLenPdf::46                     0                       # What write queue length does an incoming req see
system.mem_ctrls1.wrQLenPdf::47                     0                       # What write queue length does an incoming req see
system.mem_ctrls1.wrQLenPdf::48                     0                       # What write queue length does an incoming req see
system.mem_ctrls1.wrQLenPdf::49                     0                       # What write queue length does an incoming req see
system.mem_ctrls1.wrQLenPdf::50                     0                       # What write queue length does an incoming req see
system.mem_ctrls1.wrQLenPdf::51                     0                       # What write queue length does an incoming req see
system.mem_ctrls1.wrQLenPdf::52                     0                       # What write queue length does an incoming req see
system.mem_ctrls1.wrQLenPdf::53                     0                       # What write queue length does an incoming req see
system.mem_ctrls1.wrQLenPdf::54                     0                       # What write queue length does an incoming req see
system.mem_ctrls1.wrQLenPdf::55                     0                       # What write queue length does an incoming req see
system.mem_ctrls1.wrQLenPdf::56                     0                       # What write queue length does an incoming req see
system.mem_ctrls1.wrQLenPdf::57                     0                       # What write queue length does an incoming req see
system.mem_ctrls1.wrQLenPdf::58                     0                       # What write queue length does an incoming req see
system.mem_ctrls1.wrQLenPdf::59                     0                       # What write queue length does an incoming req see
system.mem_ctrls1.wrQLenPdf::60                     0                       # What write queue length does an incoming req see
system.mem_ctrls1.wrQLenPdf::61                     0                       # What write queue length does an incoming req see
system.mem_ctrls1.wrQLenPdf::62                     0                       # What write queue length does an incoming req see
system.mem_ctrls1.wrQLenPdf::63                     0                       # What write queue length does an incoming req see
system.mem_ctrls1.bytesPerActivate::samples        81435                       # Bytes accessed per row activation
system.mem_ctrls1.bytesPerActivate::mean   124.476012                       # Bytes accessed per row activation
system.mem_ctrls1.bytesPerActivate::gmean    92.740820                       # Bytes accessed per row activation
system.mem_ctrls1.bytesPerActivate::stdev   140.546590                       # Bytes accessed per row activation
system.mem_ctrls1.bytesPerActivate::0-127        55889     68.63%     68.63% # Bytes accessed per row activation
system.mem_ctrls1.bytesPerActivate::128-255        15989     19.63%     88.26% # Bytes accessed per row activation
system.mem_ctrls1.bytesPerActivate::256-383         3773      4.63%     92.90% # Bytes accessed per row activation
system.mem_ctrls1.bytesPerActivate::384-511         2066      2.54%     95.43% # Bytes accessed per row activation
system.mem_ctrls1.bytesPerActivate::512-639         1422      1.75%     97.18% # Bytes accessed per row activation
system.mem_ctrls1.bytesPerActivate::640-767         1673      2.05%     99.23% # Bytes accessed per row activation
system.mem_ctrls1.bytesPerActivate::768-895          152      0.19%     99.42% # Bytes accessed per row activation
system.mem_ctrls1.bytesPerActivate::896-1023           86      0.11%     99.53% # Bytes accessed per row activation
system.mem_ctrls1.bytesPerActivate::1024-1151          385      0.47%    100.00% # Bytes accessed per row activation
system.mem_ctrls1.bytesPerActivate::total        81435                       # Bytes accessed per row activation
system.mem_ctrls1.rdPerTurnAround::samples         1276                       # Reads before turning the bus around for writes
system.mem_ctrls1.rdPerTurnAround::mean    107.257837                       # Reads before turning the bus around for writes
system.mem_ctrls1.rdPerTurnAround::gmean    31.225111                       # Reads before turning the bus around for writes
system.mem_ctrls1.rdPerTurnAround::stdev  1905.764305                       # Reads before turning the bus around for writes
system.mem_ctrls1.rdPerTurnAround::0-4095         1275     99.92%     99.92% # Reads before turning the bus around for writes
system.mem_ctrls1.rdPerTurnAround::65536-69631            1      0.08%    100.00% # Reads before turning the bus around for writes
system.mem_ctrls1.rdPerTurnAround::total         1276                       # Reads before turning the bus around for writes
system.mem_ctrls1.wrPerTurnAround::samples         1276                       # Writes before turning the bus around for reads
system.mem_ctrls1.wrPerTurnAround::mean     16.870690                       # Writes before turning the bus around for reads
system.mem_ctrls1.wrPerTurnAround::gmean    16.835372                       # Writes before turning the bus around for reads
system.mem_ctrls1.wrPerTurnAround::stdev     1.108139                       # Writes before turning the bus around for reads
system.mem_ctrls1.wrPerTurnAround::16             753     59.01%     59.01% # Writes before turning the bus around for reads
system.mem_ctrls1.wrPerTurnAround::17              45      3.53%     62.54% # Writes before turning the bus around for reads
system.mem_ctrls1.wrPerTurnAround::18             380     29.78%     92.32% # Writes before turning the bus around for reads
system.mem_ctrls1.wrPerTurnAround::19              87      6.82%     99.14% # Writes before turning the bus around for reads
system.mem_ctrls1.wrPerTurnAround::20              10      0.78%     99.92% # Writes before turning the bus around for reads
system.mem_ctrls1.wrPerTurnAround::21               1      0.08%    100.00% # Writes before turning the bus around for reads
system.mem_ctrls1.wrPerTurnAround::total         1276                       # Writes before turning the bus around for reads
system.mem_ctrls1.totQLat                  3753852750                       # Total ticks spent queuing
system.mem_ctrls1.totMemAccLat             6320127750                       # Total ticks spent from burst creation until serviced by the DRAM
system.mem_ctrls1.totBusLat                 684340000                       # Total ticks spent in databus transfers
system.mem_ctrls1.avgQLat                    27426.81                       # Average queueing delay per DRAM burst
system.mem_ctrls1.avgBusLat                   5000.00                       # Average bus latency per DRAM burst
system.mem_ctrls1.avgMemAccLat               46176.81                       # Average memory access latency per DRAM burst
system.mem_ctrls1.avgRdBW                      655.01                       # Average DRAM read bandwidth in MiByte/s
system.mem_ctrls1.avgWrBW                      103.02                       # Average achieved write bandwidth in MiByte/s
system.mem_ctrls1.avgRdBWSys                   655.08                       # Average system read bandwidth in MiByte/s
system.mem_ctrls1.avgWrBWSys                   103.12                       # Average system write bandwidth in MiByte/s
system.mem_ctrls1.peakBW                     12800.00                       # Theoretical peak bandwidth in MiByte/s
system.mem_ctrls1.busUtil                        5.92                       # Data bus utilization in percentage
system.mem_ctrls1.busUtilRead                    5.12                       # Data bus utilization in percentage for reads
system.mem_ctrls1.busUtilWrite                   0.80                       # Data bus utilization in percentage for writes
system.mem_ctrls1.avgRdQLen                      1.56                       # Average read queue length when enqueuing
system.mem_ctrls1.avgWrQLen                     10.69                       # Average write queue length when enqueuing
system.mem_ctrls1.readRowHits                   70283                       # Number of row buffer hits during reads
system.mem_ctrls1.writeRowHits                   6671                       # Number of row buffer hits during writes
system.mem_ctrls1.readRowHitRate                51.35                       # Row buffer hit rate for reads
system.mem_ctrls1.writeRowHitRate               30.96                       # Row buffer hit rate for writes
system.mem_ctrls1.avgGap                     84407.88                       # Average gap between requests
system.mem_ctrls1.pageHitRate                   48.58                       # Row buffer hit rate, read and write combined
system.mem_ctrls1_0.actEnergy               293482560                       # Energy for activate commands per rank (pJ)
system.mem_ctrls1_0.preEnergy               155982090                       # Energy for precharge commands per rank (pJ)
system.mem_ctrls1_0.readEnergy              489411300                       # Energy for read commands per rank (pJ)
system.mem_ctrls1_0.writeEnergy              56156760                       # Energy for write commands per rank (pJ)
system.mem_ctrls1_0.refreshEnergy        1063327200.000000                       # Energy for refresh commands per rank (pJ)
system.mem_ctrls1_0.actBackEnergy          1366397730                       # Energy for active background per rank (pJ)
system.mem_ctrls1_0.preBackEnergy            24764160                       # Energy for precharge background per rank (pJ)
system.mem_ctrls1_0.actPowerDownEnergy     4384184070                       # Energy for active power-down per rank (pJ)
system.mem_ctrls1_0.prePowerDownEnergy      252928320                       # Energy for precharge power-down per rank (pJ)
system.mem_ctrls1_0.selfRefreshEnergy        20003085                       # Energy for self refresh per rank (pJ)
system.mem_ctrls1_0.totalEnergy            8106945825                       # Total energy per rank (pJ)
system.mem_ctrls1_0.averagePower           606.212850                       # Core power per rank (mW)
system.mem_ctrls1_0.totalIdleTime         10311111500                       # Total Idle time Per DRAM Rank
system.mem_ctrls1_0.memoryStateTime::IDLE     14069250                       # Time in different power states
system.mem_ctrls1_0.memoryStateTime::REF    449920000                       # Time in different power states
system.mem_ctrls1_0.memoryStateTime::SREF     38332000                       # Time in different power states
system.mem_ctrls1_0.memoryStateTime::PRE_PDN    658714000                       # Time in different power states
system.mem_ctrls1_0.memoryStateTime::ACT   2597588500                       # Time in different power states
system.mem_ctrls1_0.memoryStateTime::ACT_PDN   9614476750                       # Time in different power states
system.mem_ctrls1_1.actEnergy               288006180                       # Energy for activate commands per rank (pJ)
system.mem_ctrls1_1.preEnergy               153063735                       # Energy for precharge commands per rank (pJ)
system.mem_ctrls1_1.readEnergy              487826220                       # Energy for read commands per rank (pJ)
system.mem_ctrls1_1.writeEnergy              56214180                       # Energy for write commands per rank (pJ)
system.mem_ctrls1_1.refreshEnergy        1060254000.000000                       # Energy for refresh commands per rank (pJ)
system.mem_ctrls1_1.actBackEnergy          1360900080                       # Energy for active background per rank (pJ)
system.mem_ctrls1_1.preBackEnergy            25692480                       # Energy for precharge background per rank (pJ)
system.mem_ctrls1_1.actPowerDownEnergy     4325736270                       # Energy for active power-down per rank (pJ)
system.mem_ctrls1_1.prePowerDownEnergy      279301920                       # Energy for precharge power-down per rank (pJ)
system.mem_ctrls1_1.selfRefreshEnergy        39239265                       # Energy for self refresh per rank (pJ)
system.mem_ctrls1_1.totalEnergy            8076262410                       # Total energy per rank (pJ)
system.mem_ctrls1_1.averagePower           603.918437                       # Core power per rank (mW)
system.mem_ctrls1_1.totalIdleTime         10322143250                       # Total Idle time Per DRAM Rank
system.mem_ctrls1_1.memoryStateTime::IDLE     16097250                       # Time in different power states
system.mem_ctrls1_1.memoryStateTime::REF    448650000                       # Time in different power states
system.mem_ctrls1_1.memoryStateTime::SREF    108085750                       # Time in different power states
system.mem_ctrls1_1.memoryStateTime::PRE_PDN    727137000                       # Time in different power states
system.mem_ctrls1_1.memoryStateTime::ACT   2586078250                       # Time in different power states
system.mem_ctrls1_1.memoryStateTime::ACT_PDN   9487052250                       # Time in different power states
system.mem_ctrls2.pwrStateResidencyTicks::UNDEFINED  13373100500                       # Cumulative time (in ticks) in various power states
system.mem_ctrls2.bytes_read::ruby.dir_cntrl2      8675968                       # Number of bytes read from this memory
system.mem_ctrls2.bytes_read::total           8675968                       # Number of bytes read from this memory
system.mem_ctrls2.bytes_written::ruby.dir_cntrl2      1359360                       # Number of bytes written to this memory
system.mem_ctrls2.bytes_written::total        1359360                       # Number of bytes written to this memory
system.mem_ctrls2.num_reads::ruby.dir_cntrl2       135562                       # Number of read requests responded to by this memory
system.mem_ctrls2.num_reads::total             135562                       # Number of read requests responded to by this memory
system.mem_ctrls2.num_writes::ruby.dir_cntrl2        21240                       # Number of write requests responded to by this memory
system.mem_ctrls2.num_writes::total             21240                       # Number of write requests responded to by this memory
system.mem_ctrls2.bw_read::ruby.dir_cntrl2    648762641                       # Total read bandwidth from this memory (bytes/s)
system.mem_ctrls2.bw_read::total            648762641                       # Total read bandwidth from this memory (bytes/s)
system.mem_ctrls2.bw_write::ruby.dir_cntrl2    101648829                       # Write bandwidth from this memory (bytes/s)
system.mem_ctrls2.bw_write::total           101648829                       # Write bandwidth from this memory (bytes/s)
system.mem_ctrls2.bw_total::ruby.dir_cntrl2    750411470                       # Total bandwidth to/from this memory (bytes/s)
system.mem_ctrls2.bw_total::total           750411470                       # Total bandwidth to/from this memory (bytes/s)
system.mem_ctrls2.readReqs                     135562                       # Number of read requests accepted
system.mem_ctrls2.avgNetLat                      0.00                       # Average network latency to DRAM controller
system.mem_ctrls2.writeReqs                     21240                       # Number of write requests accepted
system.mem_ctrls2.readBursts                   135562                       # Number of DRAM read bursts, including those serviced by the write queue
system.mem_ctrls2.writeBursts                   21240                       # Number of DRAM write bursts, including those merged in the write queue
system.mem_ctrls2.bytesReadDRAM               8675328                       # Total number of bytes read from DRAM
system.mem_ctrls2.bytesReadWrQ                    640                       # Total number of bytes read from write queue
system.mem_ctrls2.bytesWritten                1357952                       # Total number of bytes written to DRAM
system.mem_ctrls2.bytesReadSys                8675968                       # Total read bytes from the system interface side
system.mem_ctrls2.bytesWrittenSys             1359360                       # Total written bytes from the system interface side
system.mem_ctrls2.servicedByWrQ                    10                       # Number of DRAM read bursts serviced by the write queue
system.mem_ctrls2.mergedWrBursts                    0                       # Number of DRAM write bursts merged with an existing one
system.mem_ctrls2.neitherReadNorWriteReqs            0                       # Number of requests that are neither read nor write
system.mem_ctrls2.perBankRdBursts::0             8492                       # Per bank write bursts
system.mem_ctrls2.perBankRdBursts::1             8101                       # Per bank write bursts
system.mem_ctrls2.perBankRdBursts::2             8770                       # Per bank write bursts
system.mem_ctrls2.perBankRdBursts::3             8536                       # Per bank write bursts
system.mem_ctrls2.perBankRdBursts::4             8542                       # Per bank write bursts
system.mem_ctrls2.perBankRdBursts::5             8266                       # Per bank write bursts
system.mem_ctrls2.perBankRdBursts::6             8689                       # Per bank write bursts
system.mem_ctrls2.perBankRdBursts::7             8485                       # Per bank write bursts
system.mem_ctrls2.perBankRdBursts::8             8413                       # Per bank write bursts
system.mem_ctrls2.perBankRdBursts::9             8585                       # Per bank write bursts
system.mem_ctrls2.perBankRdBursts::10            8821                       # Per bank write bursts
system.mem_ctrls2.perBankRdBursts::11            8790                       # Per bank write bursts
system.mem_ctrls2.perBankRdBursts::12            8564                       # Per bank write bursts
system.mem_ctrls2.perBankRdBursts::13            8231                       # Per bank write bursts
system.mem_ctrls2.perBankRdBursts::14            7959                       # Per bank write bursts
system.mem_ctrls2.perBankRdBursts::15            8308                       # Per bank write bursts
system.mem_ctrls2.perBankWrBursts::0             1335                       # Per bank write bursts
system.mem_ctrls2.perBankWrBursts::1             1293                       # Per bank write bursts
system.mem_ctrls2.perBankWrBursts::2             1538                       # Per bank write bursts
system.mem_ctrls2.perBankWrBursts::3             1449                       # Per bank write bursts
system.mem_ctrls2.perBankWrBursts::4             1267                       # Per bank write bursts
system.mem_ctrls2.perBankWrBursts::5             1118                       # Per bank write bursts
system.mem_ctrls2.perBankWrBursts::6             1320                       # Per bank write bursts
system.mem_ctrls2.perBankWrBursts::7             1302                       # Per bank write bursts
system.mem_ctrls2.perBankWrBursts::8             1216                       # Per bank write bursts
system.mem_ctrls2.perBankWrBursts::9             1290                       # Per bank write bursts
system.mem_ctrls2.perBankWrBursts::10            1384                       # Per bank write bursts
system.mem_ctrls2.perBankWrBursts::11            1385                       # Per bank write bursts
system.mem_ctrls2.perBankWrBursts::12            1418                       # Per bank write bursts
system.mem_ctrls2.perBankWrBursts::13            1227                       # Per bank write bursts
system.mem_ctrls2.perBankWrBursts::14            1228                       # Per bank write bursts
system.mem_ctrls2.perBankWrBursts::15            1448                       # Per bank write bursts
system.mem_ctrls2.numRdRetry                        0                       # Number of times read queue was full causing retry
system.mem_ctrls2.numWrRetry                        0                       # Number of times write queue was full causing retry
system.mem_ctrls2.totGap                  13372174000                       # Total gap between requests
system.mem_ctrls2.readPktSize::0                    0                       # Read request sizes (log2)
system.mem_ctrls2.readPktSize::1                    0                       # Read request sizes (log2)
system.mem_ctrls2.readPktSize::2                    0                       # Read request sizes (log2)
system.mem_ctrls2.readPktSize::3                    0                       # Read request sizes (log2)
system.mem_ctrls2.readPktSize::4                    0                       # Read request sizes (log2)
system.mem_ctrls2.readPktSize::5                    0                       # Read request sizes (log2)
system.mem_ctrls2.readPktSize::6               135562                       # Read request sizes (log2)
system.mem_ctrls2.writePktSize::0                   0                       # Write request sizes (log2)
system.mem_ctrls2.writePktSize::1                   0                       # Write request sizes (log2)
system.mem_ctrls2.writePktSize::2                   0                       # Write request sizes (log2)
system.mem_ctrls2.writePktSize::3                   0                       # Write request sizes (log2)
system.mem_ctrls2.writePktSize::4                   0                       # Write request sizes (log2)
system.mem_ctrls2.writePktSize::5                   0                       # Write request sizes (log2)
system.mem_ctrls2.writePktSize::6               21240                       # Write request sizes (log2)
system.mem_ctrls2.rdQLenPdf::0                  67924                       # What read queue length does an incoming req see
system.mem_ctrls2.rdQLenPdf::1                  34959                       # What read queue length does an incoming req see
system.mem_ctrls2.rdQLenPdf::2                  17192                       # What read queue length does an incoming req see
system.mem_ctrls2.rdQLenPdf::3                   8447                       # What read queue length does an incoming req see
system.mem_ctrls2.rdQLenPdf::4                   4065                       # What read queue length does an incoming req see
system.mem_ctrls2.rdQLenPdf::5                   1803                       # What read queue length does an incoming req see
system.mem_ctrls2.rdQLenPdf::6                    741                       # What read queue length does an incoming req see
system.mem_ctrls2.rdQLenPdf::7                    276                       # What read queue length does an incoming req see
system.mem_ctrls2.rdQLenPdf::8                    109                       # What read queue length does an incoming req see
system.mem_ctrls2.rdQLenPdf::9                     29                       # What read queue length does an incoming req see
system.mem_ctrls2.rdQLenPdf::10                     5                       # What read queue length does an incoming req see
system.mem_ctrls2.rdQLenPdf::11                     2                       # What read queue length does an incoming req see
system.mem_ctrls2.rdQLenPdf::12                     0                       # What read queue length does an incoming req see
system.mem_ctrls2.rdQLenPdf::13                     0                       # What read queue length does an incoming req see
system.mem_ctrls2.rdQLenPdf::14                     0                       # What read queue length does an incoming req see
system.mem_ctrls2.rdQLenPdf::15                     0                       # What read queue length does an incoming req see
system.mem_ctrls2.rdQLenPdf::16                     0                       # What read queue length does an incoming req see
system.mem_ctrls2.rdQLenPdf::17                     0                       # What read queue length does an incoming req see
system.mem_ctrls2.rdQLenPdf::18                     0                       # What read queue length does an incoming req see
system.mem_ctrls2.rdQLenPdf::19                     0                       # What read queue length does an incoming req see
system.mem_ctrls2.rdQLenPdf::20                     0                       # What read queue length does an incoming req see
system.mem_ctrls2.rdQLenPdf::21                     0                       # What read queue length does an incoming req see
system.mem_ctrls2.rdQLenPdf::22                     0                       # What read queue length does an incoming req see
system.mem_ctrls2.rdQLenPdf::23                     0                       # What read queue length does an incoming req see
system.mem_ctrls2.rdQLenPdf::24                     0                       # What read queue length does an incoming req see
system.mem_ctrls2.rdQLenPdf::25                     0                       # What read queue length does an incoming req see
system.mem_ctrls2.rdQLenPdf::26                     0                       # What read queue length does an incoming req see
system.mem_ctrls2.rdQLenPdf::27                     0                       # What read queue length does an incoming req see
system.mem_ctrls2.rdQLenPdf::28                     0                       # What read queue length does an incoming req see
system.mem_ctrls2.rdQLenPdf::29                     0                       # What read queue length does an incoming req see
system.mem_ctrls2.rdQLenPdf::30                     0                       # What read queue length does an incoming req see
system.mem_ctrls2.rdQLenPdf::31                     0                       # What read queue length does an incoming req see
system.mem_ctrls2.wrQLenPdf::0                      1                       # What write queue length does an incoming req see
system.mem_ctrls2.wrQLenPdf::1                      1                       # What write queue length does an incoming req see
system.mem_ctrls2.wrQLenPdf::2                      1                       # What write queue length does an incoming req see
system.mem_ctrls2.wrQLenPdf::3                      1                       # What write queue length does an incoming req see
system.mem_ctrls2.wrQLenPdf::4                      1                       # What write queue length does an incoming req see
system.mem_ctrls2.wrQLenPdf::5                      1                       # What write queue length does an incoming req see
system.mem_ctrls2.wrQLenPdf::6                      1                       # What write queue length does an incoming req see
system.mem_ctrls2.wrQLenPdf::7                      1                       # What write queue length does an incoming req see
system.mem_ctrls2.wrQLenPdf::8                      1                       # What write queue length does an incoming req see
system.mem_ctrls2.wrQLenPdf::9                      1                       # What write queue length does an incoming req see
system.mem_ctrls2.wrQLenPdf::10                     1                       # What write queue length does an incoming req see
system.mem_ctrls2.wrQLenPdf::11                     1                       # What write queue length does an incoming req see
system.mem_ctrls2.wrQLenPdf::12                     1                       # What write queue length does an incoming req see
system.mem_ctrls2.wrQLenPdf::13                     1                       # What write queue length does an incoming req see
system.mem_ctrls2.wrQLenPdf::14                     1                       # What write queue length does an incoming req see
system.mem_ctrls2.wrQLenPdf::15                   506                       # What write queue length does an incoming req see
system.mem_ctrls2.wrQLenPdf::16                   558                       # What write queue length does an incoming req see
system.mem_ctrls2.wrQLenPdf::17                   910                       # What write queue length does an incoming req see
system.mem_ctrls2.wrQLenPdf::18                  1194                       # What write queue length does an incoming req see
system.mem_ctrls2.wrQLenPdf::19                  1283                       # What write queue length does an incoming req see
system.mem_ctrls2.wrQLenPdf::20                  1285                       # What write queue length does an incoming req see
[...]
system.ruby.L1Cache_Controller.MR.Load::total        48250                      
system.ruby.L1Cache_Controller.MR.Ifetch |         194      5.59%      5.59% |         200      5.76%     11.35% |         208      5.99%     17.35% |         181      5.22%     22.56% |         170      4.90%     27.46% |           0      0.00%     27.46% |           0      0.00%     27.46% |         201      5.79%     33.26% |         150      4.32%     37.58% |         190      5.48%     43.05% |         984     28.36%     71.41% |         221      6.37%     77.78% |         209      6.02%     83.80% |         210      6.05%     89.86% |         187      5.39%     95.24% |         165      4.76%    100.00%
system.ruby.L1Cache_Controller.MR.Ifetch::total         3470                      
system.ruby.L1Cache_Controller.MR.Store  |           7      5.88%      5.88% |           8      6.72%     12.61% |           9      7.56%     20.17% |           8      6.72%     26.89% |           9      7.56%     34.45% |           0      0.00%     34.45% |           0      0.00%     34.45% |           8      6.72%     41.18% |           9      7.56%     48.74% |           8      6.72%     55.46% |           9      7.56%     63.03% |           8      6.72%     69.75% |           9      7.56%     77.31% |           9      7.56%     84.87% |           9      7.56%     92.44% |           9      7.56%    100.00%
system.ruby.L1Cache_Controller.MR.Store::total          119                      
system.ruby.L1Cache_Controller.MMR.Load  |        1894      8.37%      8.37% |         890      3.94%     12.31% |         868      3.84%     16.15% |        2217      9.80%     25.95% |        1023      4.52%     30.47% |           0      0.00%     30.47% |           0      0.00%     30.47% |         980      4.33%     34.81% |        5596     24.74%     59.55% |         898      3.97%     63.52% |        1059      4.68%     68.20% |        2123      9.39%     77.59% |         810      3.58%     81.17% |        1970      8.71%     89.88% |        1039      4.59%     94.47% |        1250      5.53%    100.00%
system.ruby.L1Cache_Controller.MMR.Load::total        22617                      
system.ruby.L1Cache_Controller.MMR.Store |        1573      8.53%      8.53% |        1529      8.29%     16.81% |        1477      8.01%     24.82% |        2052     11.12%     35.94% |        1423      7.71%     43.65% |           0      0.00%     43.65% |           0      0.00%     43.65% |        1459      7.91%     51.56% |         850      4.61%     56.17% |         677      3.67%     59.84% |        1306      7.08%     66.92% |         918      4.98%     71.89% |         967      5.24%     77.13% |        1553      8.42%     85.55% |        1423      7.71%     93.26% |        1243      6.74%    100.00%
system.ruby.L1Cache_Controller.MMR.Store::total        18450                      
system.ruby.L1Cache_Controller.IM.Ack    |      159990      8.74%      8.74% |      153489      8.39%     17.13% |      152801      8.35%     25.48% |      154164      8.42%     33.90% |      154935      8.47%     42.37% |        5978      0.33%     42.69% |        5900      0.32%     43.01% |      154971      8.47%     51.48% |       37340      2.04%     53.52% |       37941      2.07%     55.60% |      157811      8.62%     64.22% |       36962      2.02%     66.24% |      152748      8.35%     74.58% |      152614      8.34%     82.92% |      152612      8.34%     91.26% |      159956      8.74%    100.00%
system.ruby.L1Cache_Controller.IM.Ack::total      1830212                      
system.ruby.L1Cache_Controller.IM.Exclusive_Data |       10683      8.72%      8.72% |       10249      8.37%     17.09% |       10203      8.33%     25.42% |       10296      8.41%     33.83% |       10347      8.45%     42.28% |         525      0.43%     42.71% |         525      0.43%     43.14% |       10344      8.45%     51.58% |        2498      2.04%     53.62% |        2545      2.08%     55.70% |       10534      8.60%     64.30% |        2474      2.02%     66.32% |       10193      8.32%     74.64% |       10185      8.32%     82.96% |       10184      8.32%     91.28% |       10684      8.72%    100.00%
system.ruby.L1Cache_Controller.IM.Exclusive_Data::total       122469                      
system.ruby.L1Cache_Controller.SM.Ack    |           5      4.59%      4.59% |           5      4.59%      9.17% |           9      8.26%     17.43% |           3      2.75%     20.18% |           5      4.59%     24.77% |           0      0.00%     24.77% |           0      0.00%     24.77% |           5      4.59%     29.36% |           9      8.26%     37.61% |           8      7.34%     44.95% |           8      7.34%     52.29% |          12     11.01%     63.30% |           7      6.42%     69.72% |          11     10.09%     79.82% |           9      8.26%     88.07% |          13     11.93%    100.00%
system.ruby.L1Cache_Controller.SM.Ack::total          109                      
system.ruby.L1Cache_Controller.SM.Data   |           1      7.14%      7.14% |           1      7.14%     14.29% |           1      7.14%     21.43% |           1      7.14%     28.57% |           1      7.14%     35.71% |           0      0.00%     35.71% |           0      0.00%     35.71% |           1      7.14%     42.86% |           1      7.14%     50.00% |           1      7.14%     57.14% |           1      7.14%     64.29% |           1      7.14%     71.43% |           1      7.14%     78.57% |           1      7.14%     85.71% |           1      7.14%     92.86% |           1      7.14%    100.00%
system.ruby.L1Cache_Controller.SM.Data::total           14                      
system.ruby.L1Cache_Controller.ISM.Ack   |           9     10.34%     10.34% |           9     10.34%     20.69% |           5      5.75%     26.44% |          11     12.64%     39.08% |           9     10.34%     49.43% |           0      0.00%     49.43% |           0      0.00%     49.43% |           9     10.34%     59.77% |           5      5.75%     65.52% |           6      6.90%     72.41% |           6      6.90%     79.31% |           2      2.30%     81.61% |           7      8.05%     89.66% |           3      3.45%     93.10% |           5      5.75%     98.85% |           1      1.15%    100.00%
system.ruby.L1Cache_Controller.ISM.Ack::total           87                      
system.ruby.L1Cache_Controller.ISM.All_acks_no_sharers |           1      7.14%      7.14% |           1      7.14%     14.29% |           1      7.14%     21.43% |           1      7.14%     28.57% |           1      7.14%     35.71% |           0      0.00%     35.71% |           0      0.00%     35.71% |           1      7.14%     42.86% |           1      7.14%     50.00% |           1      7.14%     57.14% |           1      7.14%     64.29% |           1      7.14%     71.43% |           1      7.14%     78.57% |           1      7.14%     85.71% |           1      7.14%     92.86% |           1      7.14%    100.00%
system.ruby.L1Cache_Controller.ISM.All_acks_no_sharers::total           14                      
system.ruby.L1Cache_Controller.M_W.Load  |           0      0.00%      0.00% |           0      0.00%      0.00% |           1     50.00%     50.00% |           0      0.00%     50.00% |           0      0.00%     50.00% |           0      0.00%     50.00% |           0      0.00%     50.00% |           0      0.00%     50.00% |           0      0.00%     50.00% |           1     50.00%    100.00% |           0      0.00%    100.00% |           0      0.00%    100.00% |           0      0.00%    100.00% |           0      0.00%    100.00% |           0      0.00%    100.00% |           0      0.00%    100.00%
system.ruby.L1Cache_Controller.M_W.Load::total            2                      
system.ruby.L1Cache_Controller.M_W.Ifetch |           0      0.00%      0.00% |           4     80.00%     80.00% |           0      0.00%     80.00% |           0      0.00%     80.00% |           0      0.00%     80.00% |           0      0.00%     80.00% |           0      0.00%     80.00% |           0      0.00%     80.00% |           0      0.00%     80.00% |           0      0.00%     80.00% |           0      0.00%     80.00% |           1     20.00%    100.00% |           0      0.00%    100.00% |           0      0.00%    100.00% |           0      0.00%    100.00% |           0      0.00%    100.00%
system.ruby.L1Cache_Controller.M_W.Ifetch::total            5                      
system.ruby.L1Cache_Controller.M_W.Store |           3     33.33%     33.33% |           0      0.00%     33.33% |           0      0.00%     33.33% |           0      0.00%     33.33% |           2     22.22%     55.56% |           0      0.00%     55.56% |           0      0.00%     55.56% |           0      0.00%     55.56% |           2     22.22%     77.78% |           0      0.00%     77.78% |           1     11.11%     88.89% |           0      0.00%     88.89% |           0      0.00%     88.89% |           0      0.00%     88.89% |           1     11.11%    100.00% |           0      0.00%    100.00%
system.ruby.L1Cache_Controller.M_W.Store::total            9                      
system.ruby.L1Cache_Controller.M_W.Ack   |         710      6.94%      6.94% |         628      6.14%     13.08% |         633      6.19%     19.27% |         630      6.16%     25.43% |         738      7.21%     32.64% |        1567     15.32%     47.96% |        1648     16.11%     64.07% |         516      5.04%     69.12% |         406      3.97%     73.09% |         619      6.05%     79.14% |         438      4.28%     83.42% |         282      2.76%     86.18% |         325      3.18%     89.35% |         402      3.93%     93.28% |         393      3.84%     97.13% |         294      2.87%    100.00%
system.ruby.L1Cache_Controller.M_W.Ack::total        10229                      
system.ruby.L1Cache_Controller.M_W.All_acks_no_sharers |       50433     11.85%     11.85% |       17596      4.13%     15.98% |       17449      4.10%     20.08% |       33436      7.85%     27.93% |       33421      7.85%     35.78% |         364      0.09%     35.87% |         364      0.09%     35.95% |       25508      5.99%     41.94% |       57893     13.60%     55.54% |        9519      2.24%     57.78% |       42103      9.89%     67.67% |       50853     11.94%     79.61% |        9519      2.24%     81.85% |        9521      2.24%     84.08% |       25350      5.95%     90.04% |       42423      9.96%    100.00%
system.ruby.L1Cache_Controller.M_W.All_acks_no_sharers::total       425752                      
system.ruby.L1Cache_Controller.MM_W.Store |           0      0.00%      0.00% |           1     33.33%     33.33% |           0      0.00%     33.33% |           0      0.00%     33.33% |           0      0.00%     33.33% |           0      0.00%     33.33% |           0      0.00%     33.33% |           0      0.00%     33.33% |           0      0.00%     33.33% |           0      0.00%     33.33% |           0      0.00%     33.33% |           1     33.33%     66.67% |           0      0.00%     66.67% |           0      0.00%     66.67% |           0      0.00%     66.67% |           1     33.33%    100.00%
system.ruby.L1Cache_Controller.MM_W.Store::total            3                      
system.ruby.L1Cache_Controller.MM_W.Ack  |         238      4.11%      4.11% |         220      3.80%      7.91% |         218      3.76%     11.67% |         250      4.32%     15.99% |         259      4.47%     20.46% |        1547     26.71%     47.17% |        1625     28.06%     75.22% |         163      2.81%     78.04% |         110      1.90%     79.94% |         208      3.59%     83.53% |         175      3.02%     86.55% |         122      2.11%     88.66% |         121      2.09%     90.75% |         135      2.33%     93.08% |         123      2.12%     95.20% |         278      4.80%    100.00%
system.ruby.L1Cache_Controller.MM_W.Ack::total         5792                      
system.ruby.L1Cache_Controller.MM_W.All_acks_no_sharers |       10686      8.72%      8.72% |       10249      8.37%     17.09% |       10203      8.33%     25.42% |       10296      8.41%     33.83% |       10349      8.45%     42.28% |         525      0.43%     42.71% |         525      0.43%     43.14% |       10344      8.45%     51.58% |        2500      2.04%     53.62% |        2545      2.08%     55.70% |       10535      8.60%     64.30% |        2474      2.02%     66.32% |       10193      8.32%     74.65% |       10185      8.32%     82.96% |       10185      8.32%     91.28% |       10684      8.72%    100.00%
system.ruby.L1Cache_Controller.MM_W.All_acks_no_sharers::total       122478                      
system.ruby.L1Cache_Controller.IS.Ack    |      755751     11.86%     11.86% |      263243      4.13%     15.99% |      261036      4.10%     20.08% |      500839      7.86%     27.94% |      500522      7.85%     35.79% |        3529      0.06%     35.84% |        3448      0.05%     35.90% |      382035      5.99%     41.89% |      867952     13.62%     55.51% |      142096      2.23%     57.74% |      631056      9.90%     67.64% |      762452     11.96%     79.60% |      142396      2.23%     81.83% |      142348      2.23%     84.06% |      379805      5.96%     90.02% |      635990      9.98%    100.00%
system.ruby.L1Cache_Controller.IS.Ack::total      6374498                      
system.ruby.L1Cache_Controller.IS.Shared_Data |           1      7.14%      7.14% |           1      7.14%     14.29% |           1      7.14%     21.43% |           1      7.14%     28.57% |           1      7.14%     35.71% |           0      0.00%     35.71% |           0      0.00%     35.71% |           1      7.14%     42.86% |           1      7.14%     50.00% |           1      7.14%     57.14% |           1      7.14%     64.29% |           1      7.14%     71.43% |           1      7.14%     78.57% |           1      7.14%     85.71% |           1      7.14%     92.86% |           1      7.14%    100.00%
system.ruby.L1Cache_Controller.IS.Shared_Data::total           14                      
system.ruby.L1Cache_Controller.IS.Exclusive_Data |       50436     11.85%     11.85% |       17596      4.13%     15.98% |       17449      4.10%     20.08% |       33436      7.85%     27.93% |       33423      7.85%     35.78% |         364      0.09%     35.87% |         364      0.09%     35.95% |       25508      5.99%     41.94% |       57895     13.60%     55.54% |        9519      2.24%     57.78% |       42104      9.89%     67.67% |       50853     11.94%     79.61% |        9519      2.24%     81.85% |        9521      2.24%     84.08% |       25351      5.95%     90.04% |       42423      9.96%    100.00%
system.ruby.L1Cache_Controller.IS.Exclusive_Data::total       425761                      
system.ruby.L1Cache_Controller.SS.Ack    |           9     12.33%     12.33% |           8     10.96%     23.29% |           5      6.85%     30.14% |          10     13.70%     43.84% |           9     12.33%     56.16% |           0      0.00%     56.16% |           0      0.00%     56.16% |           8     10.96%     67.12% |           0      0.00%     67.12% |           9     12.33%     79.45% |           3      4.11%     83.56% |           0      0.00%     83.56% |           3      4.11%     87.67% |           4      5.48%     93.15% |           5      6.85%    100.00% |           0      0.00%    100.00%
system.ruby.L1Cache_Controller.SS.Ack::total           73                      
system.ruby.L1Cache_Controller.SS.All_acks |           1      7.14%      7.14% |           1      7.14%     14.29% |           1      7.14%     21.43% |           1      7.14%     28.57% |           1      7.14%     35.71% |           0      0.00%     35.71% |           0      0.00%     35.71% |           1      7.14%     42.86% |           1      7.14%     50.00% |           1      7.14%     57.14% |           1      7.14%     64.29% |           1      7.14%     71.43% |           1      7.14%     78.57% |           1      7.14%     85.71% |           1      7.14%     92.86% |           1      7.14%    100.00%
system.ruby.L1Cache_Controller.SS.All_acks::total           14                      
system.ruby.L1Cache_Controller.MI.Load   |           5     12.20%     12.20% |           2      4.88%     17.07% |           0      0.00%     17.07% |           3      7.32%     24.39% |           4      9.76%     34.15% |           0      0.00%     34.15% |           0      0.00%     34.15% |           1      2.44%     36.59% |           7     17.07%     53.66% |           0      0.00%     53.66% |           4      9.76%     63.41% |           2      4.88%     68.29% |           0      0.00%     68.29% |           2      4.88%     73.17% |           1      2.44%     75.61% |          10     24.39%    100.00%
system.ruby.L1Cache_Controller.MI.Load::total           41                      
system.ruby.L1Cache_Controller.MI.Store  |           0      0.00%      0.00% |           1      4.17%      4.17% |           0      0.00%      4.17% |           2      8.33%     12.50% |           0      0.00%     12.50% |           0      0.00%     12.50% |           0      0.00%     12.50% |           0      0.00%     12.50% |           0      0.00%     12.50% |           0      0.00%     12.50% |           2      8.33%     20.83% |           3     12.50%     33.33% |           0      0.00%     33.33% |           0      0.00%     33.33% |           0      0.00%     33.33% |          16     66.67%    100.00%
system.ruby.L1Cache_Controller.MI.Store::total           24                      
system.ruby.L1Cache_Controller.MI.Writeback_Ack |       26818     19.83%     19.83% |         270      0.20%     20.03% |         505      0.37%     20.40% |        9567      7.07%     27.48% |        9595      7.09%     34.57% |           0      0.00%     34.57% |           0      0.00%     34.57% |        2997      2.22%     36.79% |       26174     19.35%     56.14% |           0      0.00%     56.14% |       18368     13.58%     69.72% |       19168     14.17%     83.90% |           3      0.00%     83.90% |          30      0.02%     83.92% |        2920      2.16%     86.08% |       18826     13.92%    100.00%
system.ruby.L1Cache_Controller.MI.Writeback_Ack::total       135241                      
system.ruby.L1Cache_Controller.MT.Complete_L2_to_L1 |        3718      7.17%      7.17% |        3695      7.13%     14.30% |        3675      7.09%     21.39% |        3614      6.97%     28.36% |        3493      6.74%     35.10% |           0      0.00%     35.10% |           0      0.00%     35.10% |        3614      6.97%     42.07% |        3590      6.93%     49.00% |        3583      6.91%     55.91% |        4383      8.46%     64.36% |        3634      7.01%     71.37% |        3720      7.18%     78.55% |        3623      6.99%     85.54% |        3806      7.34%     92.88% |        3691      7.12%    100.00%
system.ruby.L1Cache_Controller.MT.Complete_L2_to_L1::total        51839                      
system.ruby.L1Cache_Controller.MMT.Complete_L2_to_L1 |        3467      8.44%      8.44% |        2419      5.89%     14.33% |        2345      5.71%     20.04% |        4269     10.40%     30.44% |        2446      5.96%     36.39% |           0      0.00%     36.39% |           0      0.00%     36.39% |        2439      5.94%     42.33% |        6446     15.70%     58.03% |        1575      3.84%     61.86% |        2365      5.76%     67.62% |        3041      7.40%     75.03% |        1777      4.33%     79.36% |        3523      8.58%     87.93% |        2462      6.00%     93.93% |        2493      6.07%    100.00%
system.ruby.L1Cache_Controller.MMT.Complete_L2_to_L1::total        41067                      

---------- End Simulation Statistics   ----------
