
---------- Begin Simulation Statistics ----------
sim_seconds                                  0.014490                       # Number of seconds simulated
sim_ticks                                 14489674500                       # Number of ticks simulated
final_tick                                14489674500                       # Number of ticks from beginning of simulation (restored from checkpoints and never reset)
sim_freq                                 1000000000000                       # Frequency of simulated ticks
host_inst_rate                                   4497                       # Simulator instruction rate (inst/s)
host_op_rate                                     7749                       # Simulator op (including micro ops) rate (op/s)
host_tick_rate                                1312951                       # Simulator tick rate (ticks/s)
host_mem_usage                                2267964                       # Number of bytes of host memory used
host_seconds                                 11035.97                       # Real time elapsed on the host
sim_insts                                    49626892                       # Number of instructions simulated
sim_ops                                      85522609                       # Number of ops (including micro ops) simulated
system.voltage_domain.voltage                       1                       # Voltage in Volts
system.clk_domain.clock                          1000                       # Clock period in ticks
system.mem_ctrls0.pwrStateResidencyTicks::UNDEFINED  14489674500                       # Cumulative time (in ticks) in various power states
system.mem_ctrls0.bytes_read::ruby.dir_cntrl0      2305408                       # Number of bytes read from this memory
system.mem_ctrls0.bytes_read::total           2305408                       # Number of bytes read from this memory
system.mem_ctrls0.bytes_written::ruby.dir_cntrl0          512                       # Number of bytes written to this memory
system.mem_ctrls0.bytes_written::total            512                       # Number of bytes written to this memory
system.mem_ctrls0.num_reads::ruby.dir_cntrl0        36022                       # Number of read requests responded to by this memory
system.mem_ctrls0.num_reads::total              36022                       # Number of read requests responded to by this memory
system.mem_ctrls0.num_writes::ruby.dir_cntrl0            8                       # Number of write requests responded to by this memory
system.mem_ctrls0.num_writes::total                 8                       # Number of write requests responded to by this memory
system.mem_ctrls0.bw_read::ruby.dir_cntrl0    159106956                       # Total read bandwidth from this memory (bytes/s)
system.mem_ctrls0.bw_read::total            159106956                       # Total read bandwidth from this memory (bytes/s)
system.mem_ctrls0.bw_write::ruby.dir_cntrl0        35336                       # Write bandwidth from this memory (bytes/s)
system.mem_ctrls0.bw_write::total               35336                       # Write bandwidth from this memory (bytes/s)
system.mem_ctrls0.bw_total::ruby.dir_cntrl0    159142291                       # Total bandwidth to/from this memory (bytes/s)
system.mem_ctrls0.bw_total::total           159142291                       # Total bandwidth to/from this memory (bytes/s)
system.mem_ctrls0.readReqs                      36022                       # Number of read requests accepted
system.mem_ctrls0.writeReqs                         8                       # Number of write requests accepted
system.mem_ctrls0.readBursts                    36022                       # Number of DRAM read bursts, including those serviced by the write queue
system.mem_ctrls0.writeBursts                       8                       # Number of DRAM write bursts, including those merged in the write queue
system.mem_ctrls0.bytesReadDRAM               2305344                       # Total number of bytes read from DRAM
system.mem_ctrls0.bytesReadWrQ                     64                       # Total number of bytes read from write queue
system.mem_ctrls0.bytesWritten                      0                       # Total number of bytes written to DRAM
system.mem_ctrls0.bytesReadSys                2305408                       # Total read bytes from the system interface side
system.mem_ctrls0.bytesWrittenSys                 512                       # Total written bytes from the system interface side
system.mem_ctrls0.servicedByWrQ                     1                       # Number of DRAM read bursts serviced by the write queue
system.mem_ctrls0.mergedWrBursts                    0                       # Number of DRAM write bursts merged with an existing one
system.mem_ctrls0.neitherReadNorWriteReqs            0                       # Number of requests that are neither read nor write
system.mem_ctrls0.perBankRdBursts::0             2387                       # Per bank write bursts
system.mem_ctrls0.perBankRdBursts::1             2130                       # Per bank write bursts
system.mem_ctrls0.perBankRdBursts::2             1926                       # Per bank write bursts
system.mem_ctrls0.perBankRdBursts::3             2087                       # Per bank write bursts
system.mem_ctrls0.perBankRdBursts::4             2117                       # Per bank write bursts
system.mem_ctrls0.perBankRdBursts::5             2115                       # Per bank write bursts
system.mem_ctrls0.perBankRdBursts::6             2298                       # Per bank write bursts
system.mem_ctrls0.perBankRdBursts::7             2251                       # Per bank write bursts
system.mem_ctrls0.perBankRdBursts::8             2089                       # Per bank write bursts
system.mem_ctrls0.perBankRdBursts::9             2311                       # Per bank write bursts
system.mem_ctrls0.perBankRdBursts::10            2210                       # Per bank write bursts
system.mem_ctrls0.perBankRdBursts::11            2160                       # Per bank write bursts
system.mem_ctrls0.perBankRdBursts::12            2257                       # Per bank write bursts
system.mem_ctrls0.perBankRdBursts::13            2743                       # Per bank write bursts
system.mem_ctrls0.perBankRdBursts::14            2459                       # Per bank write bursts
system.mem_ctrls0.perBankRdBursts::15            2481                       # Per bank write bursts
system.mem_ctrls0.perBankWrBursts::0                0                       # Per bank write bursts
system.mem_ctrls0.perBankWrBursts::1                0                       # Per bank write bursts
system.mem_ctrls0.perBankWrBursts::2                0                       # Per bank write bursts
system.mem_ctrls0.perBankWrBursts::3                0                       # Per bank write bursts
system.mem_ctrls0.perBankWrBursts::4                0                       # Per bank write bursts
system.mem_ctrls0.perBankWrBursts::5                0                       # Per bank write bursts
system.mem_ctrls0.perBankWrBursts::6                0                       # Per bank write bursts
system.mem_ctrls0.perBankWrBursts::7                0                       # Per bank write bursts
system.mem_ctrls0.perBankWrBursts::8                0                       # Per bank write bursts
system.mem_ctrls0.perBankWrBursts::9                0                       # Per bank write bursts
system.mem_ctrls0.perBankWrBursts::10               0                       # Per bank write bursts
system.mem_ctrls0.perBankWrBursts::11               0                       # Per bank write bursts
system.mem_ctrls0.perBankWrBursts::12               0                       # Per bank write bursts
system.mem_ctrls0.perBankWrBursts::13               0                       # Per bank write bursts
system.mem_ctrls0.perBankWrBursts::14               0                       # Per bank write bursts
system.mem_ctrls0.perBankWrBursts::15               0                       # Per bank write bursts
system.mem_ctrls0.numRdRetry                        0                       # Number of times read queue was full causing retry
system.mem_ctrls0.numWrRetry                        0                       # Number of times write queue was full causing retry
system.mem_ctrls0.totGap                  14488573000                       # Total gap between requests
system.mem_ctrls0.readPktSize::0                    0                       # Read request sizes (log2)
system.mem_ctrls0.readPktSize::1                    0                       # Read request sizes (log2)
system.mem_ctrls0.readPktSize::2                    0                       # Read request sizes (log2)
system.mem_ctrls0.readPktSize::3                    0                       # Read request sizes (log2)
system.mem_ctrls0.readPktSize::4                    0                       # Read request sizes (log2)
system.mem_ctrls0.readPktSize::5                    0                       # Read request sizes (log2)
system.mem_ctrls0.readPktSize::6                36022                       # Read request sizes (log2)
system.mem_ctrls0.writePktSize::0                   0                       # Write request sizes (log2)
system.mem_ctrls0.writePktSize::1                   0                       # Write request sizes (log2)
system.mem_ctrls0.writePktSize::2                   0                       # Write request sizes (log2)
system.mem_ctrls0.writePktSize::3                   0                       # Write request sizes (log2)
system.mem_ctrls0.writePktSize::4                   0                       # Write request sizes (log2)
system.mem_ctrls0.writePktSize::5                   0                       # Write request sizes (log2)
system.mem_ctrls0.writePktSize::6                   8                       # Write request sizes (log2)
system.mem_ctrls0.rdQLenPdf::0                  26879                       # What read queue length does an incoming req see
system.mem_ctrls0.rdQLenPdf::1                   6171                       # What read queue length does an incoming req see
system.mem_ctrls0.rdQLenPdf::2                   1808                       # What read queue length does an incoming req see
system.mem_ctrls0.rdQLenPdf::3                    671                       # What read queue length does an incoming req see
system.mem_ctrls0.rdQLenPdf::4                    275                       # What read queue length does an incoming req see
system.mem_ctrls0.rdQLenPdf::5                    120                       # What read queue length does an incoming req see
system.mem_ctrls0.rdQLenPdf::6                     64                       # What read queue length does an incoming req see
system.mem_ctrls0.rdQLenPdf::7                     29                       # What read queue length does an incoming req see
system.mem_ctrls0.rdQLenPdf::8                      3                       # What read queue length does an incoming req see
system.mem_ctrls0.rdQLenPdf::9                      1                       # What read queue length does an incoming req see
system.mem_ctrls0.rdQLenPdf::10                     0                       # What read queue length does an incoming req see
system.mem_ctrls0.rdQLenPdf::11                     0                       # What read queue length does an incoming req see
system.mem_ctrls0.rdQLenPdf::12                     0                       # What read queue length does an incoming req see
system.mem_ctrls0.rdQLenPdf::13                     0                       # What read queue length does an incoming req see
system.mem_ctrls0.rdQLenPdf::14                     0                       # What read queue length does an incoming req see
system.mem_ctrls0.rdQLenPdf::15                     0                       # What read queue length does an incoming req see
system.mem_ctrls0.rdQLenPdf::16                     0                       # What read queue length does an incoming req see
system.mem_ctrls0.rdQLenPdf::17                     0                       # What read queue length does an incoming req see
system.mem_ctrls0.rdQLenPdf::18                     0                       # What read queue length does an incoming req see
system.mem_ctrls0.rdQLenPdf::19                     0                       # What read queue length does an incoming req see
system.mem_ctrls0.rdQLenPdf::20                     0                       # What read queue length does an incoming req see
system.mem_ctrls0.rdQLenPdf::21                     0                       # What read queue length does an incoming req see
system.mem_ctrls0.rdQLenPdf::22                     0                       # What read queue length does an incoming req see
system.mem_ctrls0.rdQLenPdf::23                     0                       # What read queue length does an incoming req see
system.mem_ctrls0.rdQLenPdf::24                     0                       # What read queue length does an incoming req see
system.mem_ctrls0.rdQLenPdf::25                     0                       # What read queue length does an incoming req see
system.mem_ctrls0.rdQLenPdf::26                     0                       # What read queue length does an incoming req see
system.mem_ctrls0.rdQLenPdf::27                     0                       # What read queue length does an incoming req see
system.mem_ctrls0.rdQLenPdf::28                     0                       # What read queue length does an incoming req see
system.mem_ctrls0.rdQLenPdf::29                     0                       # What read queue length does an incoming req see
system.mem_ctrls0.rdQLenPdf::30                     0                       # What read queue length does an incoming req see
system.mem_ctrls0.rdQLenPdf::31                     0                       # What read queue length does an incoming req see
system.mem_ctrls0.wrQLenPdf::0                      1                       # What write queue length does an incoming req see
system.mem_ctrls0.wrQLenPdf::1                      1                       # What write queue length does an incoming req see
system.mem_ctrls0.wrQLenPdf::2                      1                       # What write queue length does an incoming req see
system.mem_ctrls0.wrQLenPdf::3                      1                       # What write queue length does an incoming req see
system.mem_ctrls0.wrQLenPdf::4                      1                       # What write queue length does an incoming req see
system.mem_ctrls0.wrQLenPdf::5                      1                       # What write queue length does an incoming req see
system.mem_ctrls0.wrQLenPdf::6                      1                       # What write queue length does an incoming req see
system.mem_ctrls0.wrQLenPdf::7                      1                       # What write queue length does an incoming req see
system.mem_ctrls0.wrQLenPdf::8                      0                       # What write queue length does an incoming req see
system.mem_ctrls0.wrQLenPdf::9                      0                       # What write queue length does an incoming req see
system.mem_ctrls0.wrQLenPdf::10                     0                       # What write queue length does an incoming req see
system.mem_ctrls0.wrQLenPdf::11                     0                       # What write queue length does an incoming req see
system.mem_ctrls0.wrQLenPdf::12                     0                       # What write queue length does an incoming req see
system.mem_ctrls0.wrQLenPdf::13                     0                       # What write queue length does an incoming req see
system.mem_ctrls0.wrQLenPdf::14                     0                       # What write queue length does an incoming req see
system.mem_ctrls0.wrQLenPdf::15                     0                       # What write queue length does an incoming req see
system.mem_ctrls0.wrQLenPdf::16                     0                       # What write queue length does an incoming req see
system.mem_ctrls0.wrQLenPdf::17                     0                       # What write queue length does an incoming req see
system.mem_ctrls0.wrQLenPdf::18                     0                       # What write queue length does an incoming req see
system.mem_ctrls0.wrQLenPdf::19                     0                       # What write queue length does an incoming req see
system.mem_ctrls0.wrQLenPdf::20                     0                       # What write queue length does an incoming req see
system.mem_ctrls0.wrQLenPdf::21                     0                       # What write queue length does an incoming req see
system.mem_ctrls0.wrQLenPdf::22                     0                       # What write queue length does an incoming req see
system.mem_ctrls0.wrQLenPdf::23                     0                       # What write queue length does an incoming req see
system.mem_ctrls0.wrQLenPdf::24                     0                       # What write queue length does an incoming req see
system.mem_ctrls0.wrQLenPdf::25                     0                       # What write queue length does an incoming req see
system.mem_ctrls0.wrQLenPdf::26                     0                       # What write queue length does an incoming req see
system.mem_ctrls0.wrQLenPdf::27                     0                       # What write queue length does an incoming req see
system.mem_ctrls0.wrQLenPdf::28                     0                       # What write queue length does an incoming req see
system.mem_ctrls0.wrQLenPdf::29                     0                       # What write queue length does an incoming req see
system.mem_ctrls0.wrQLenPdf::30                     0                       # What write queue length does an incoming req see
system.mem_ctrls0.wrQLenPdf::31                     0                       # What write queue length does an incoming req see
system.mem_ctrls0.wrQLenPdf::32                     0                       # What write queue length does an incoming req see
system.mem_ctrls0.wrQLenPdf::33                     0                       # What write queue length does an incoming req see
system.mem_ctrls0.wrQLenPdf::34                     0                       # What write queue length does an incoming req see
system.mem_ctrls0.wrQLenPdf::35                     0                       # What write queue length does an incoming req see
system.mem_ctrls0.wrQLenPdf::36                     0                       # What write queue length does an incoming req see
system.mem_ctrls0.wrQLenPdf::37                     0                       # What write queue length does an incoming req see
system.mem_ctrls0.wrQLenPdf::38                     0                       # What write queue length does an incoming req see
system.mem_ctrls0.wrQLenPdf::39                     0                       # What write queue length does an incoming req see
system.mem_ctrls0.wrQLenPdf::40                     0                       # What write queue length does an incoming req see
system.mem_ctrls0.wrQLenPdf::41                     0                       # What write queue length does an incoming req see
system.mem_ctrls0.wrQLenPdf::42                     0                       # What write queue length does an incoming req see
system.mem_ctrls0.wrQLenPdf::43                     0                       # What write queue length does an incoming req see
system.mem_ctrls0.wrQLenPdf::44                     0                       # What write queue length does an incoming req see
system.mem_ctrls0.wrQLenPdf::45                     0                       # What write queue length does an incoming req see
system.mem_ctrls0.wrQLenPdf::46                     0                       # What write queue length does an incoming req see
system.mem_ctrls0.wrQLenPdf::47                     0                       # What write queue length does an incoming req see
system.mem_ctrls0.wrQLenPdf::48                     0                       # What write queue length does an incoming req see
system.mem_ctrls0.wrQLenPdf::49                     0                       # What write queue length does an incoming req see
system.mem_ctrls0.wrQLenPdf::50                     0                       # What write queue length does an incoming req see
system.mem_ctrls0.wrQLenPdf::51                     0                       # What write queue length does an incoming req see
system.mem_ctrls0.wrQLenPdf::52                     0                       # What write queue length does an incoming req see
system.mem_ctrls0.wrQLenPdf::53                     0                       # What write queue length does an incoming req see
system.mem_ctrls0.wrQLenPdf::54                     0                       # What write queue length does an incoming req see
system.mem_ctrls0.wrQLenPdf::55                     0                       # What write queue length does an incoming req see
system.mem_ctrls0.wrQLenPdf::56                     0                       # What write queue length does an incoming req see
system.mem_ctrls0.wrQLenPdf::57                     0                       # What write queue length does an incoming req see
system.mem_ctrls0.wrQLenPdf::58                     0                       # What write queue length does an incoming req see
system.mem_ctrls0.wrQLenPdf::59                     0                       # What write queue length does an incoming req see
system.mem_ctrls0.wrQLenPdf::60                     0                       # What write queue length does an incoming req see
system.mem_ctrls0.wrQLenPdf::61                     0                       # What write queue length does an incoming req see
system.mem_ctrls0.wrQLenPdf::62                     0                       # What write queue length does an incoming req see
system.mem_ctrls0.wrQLenPdf::63                     0                       # What write queue length does an incoming req see
system.mem_ctrls0.bytesPerActivate::samples        23919                       # Bytes accessed per row activation
system.mem_ctrls0.bytesPerActivate::mean    96.365233                       # Bytes accessed per row activation
system.mem_ctrls0.bytesPerActivate::gmean    77.574998                       # Bytes accessed per row activation
system.mem_ctrls0.bytesPerActivate::stdev   103.314796                       # Bytes accessed per row activation
system.mem_ctrls0.bytesPerActivate::0-127        20274     84.76%     84.76% # Bytes accessed per row activation
system.mem_ctrls0.bytesPerActivate::128-255         2077      8.68%     93.44% # Bytes accessed per row activation
system.mem_ctrls0.bytesPerActivate::256-383          378      1.58%     95.02% # Bytes accessed per row activation
system.mem_ctrls0.bytesPerActivate::384-511          243      1.02%     96.04% # Bytes accessed per row activation
system.mem_ctrls0.bytesPerActivate::512-639          884      3.70%     99.74% # Bytes accessed per row activation
system.mem_ctrls0.bytesPerActivate::640-767           54      0.23%     99.96% # Bytes accessed per row activation
system.mem_ctrls0.bytesPerActivate::768-895            1      0.00%     99.97% # Bytes accessed per row activation
system.mem_ctrls0.bytesPerActivate::896-1023            1      0.00%     99.97% # Bytes accessed per row activation
system.mem_ctrls0.bytesPerActivate::1024-1151            7      0.03%    100.00% # Bytes accessed per row activation
system.mem_ctrls0.bytesPerActivate::total        23919                       # Bytes accessed per row activation
system.mem_ctrls0.totQLat                  1078568750                       # Total ticks spent queuing
system.mem_ctrls0.totMemAccLat             1753962500                       # Total ticks spent from burst creation until serviced by the DRAM
system.mem_ctrls0.totBusLat                 180105000                       # Total ticks spent in databus transfers
system.mem_ctrls0.avgQLat                    29942.78                       # Average queueing delay per DRAM burst
system.mem_ctrls0.avgBusLat                   5000.00                       # Average bus latency per DRAM burst
system.mem_ctrls0.avgMemAccLat               48692.78                       # Average memory access latency per DRAM burst
system.mem_ctrls0.avgRdBW                      159.10                       # Average DRAM read bandwidth in MiByte/s
system.mem_ctrls0.avgWrBW                        0.00                       # Average achieved write bandwidth in MiByte/s
system.mem_ctrls0.avgRdBWSys                   159.11                       # Average system read bandwidth in MiByte/s
system.mem_ctrls0.avgWrBWSys                     0.04                       # Average system write bandwidth in MiByte/s
system.mem_ctrls0.peakBW                     12800.00                       # Theoretical peak bandwidth in MiByte/s
system.mem_ctrls0.busUtil                        1.24                       # Data bus utilization in percentage
system.mem_ctrls0.busUtilRead                    1.24                       # Data bus utilization in percentage for reads
system.mem_ctrls0.busUtilWrite                   0.00                       # Data bus utilization in percentage for writes
system.mem_ctrls0.avgRdQLen                      1.27                       # Average read queue length when enqueuing
system.mem_ctrls0.avgWrQLen                      0.82                       # Average write queue length when enqueuing
system.mem_ctrls0.readRowHits                   12099                       # Number of row buffer hits during reads
system.mem_ctrls0.writeRowHits                      0                       # Number of row buffer hits during writes
system.mem_ctrls0.readRowHitRate                33.59                       # Row buffer hit rate for reads
system.mem_ctrls0.writeRowHitRate                0.00                       # Row buffer hit rate for writes
system.mem_ctrls0.avgGap                    402125.26                       # Average gap between requests
system.mem_ctrls0.pageHitRate                   33.58                       # Row buffer hit rate, read and write combined
system.mem_ctrls0_0.actEnergy                79011240                       # Energy for activate commands per rank (pJ)
system.mem_ctrls0_0.preEnergy                41991675                       # Energy for precharge commands per rank (pJ)
system.mem_ctrls0_0.readEnergy              123600540                       # Energy for read commands per rank (pJ)
system.mem_ctrls0_0.writeEnergy                     0                       # Energy for write commands per rank (pJ)
system.mem_ctrls0_0.refreshEnergy        950233440.000000                       # Energy for refresh commands per rank (pJ)
system.mem_ctrls0_0.actBackEnergy           434095470                       # Energy for active background per rank (pJ)
system.mem_ctrls0_0.preBackEnergy            31073760                       # Energy for precharge background per rank (pJ)
system.mem_ctrls0_0.actPowerDownEnergy     3969074730                       # Energy for active power-down per rank (pJ)
system.mem_ctrls0_0.prePowerDownEnergy      648010080                       # Energy for precharge power-down per rank (pJ)
system.mem_ctrls0_0.selfRefreshEnergy       782577000                       # Energy for self refresh per rank (pJ)
system.mem_ctrls0_0.totalEnergy            7059668415                       # Total energy per rank (pJ)
system.mem_ctrls0_0.averagePower           487.220618                       # Core power per rank (mW)
system.mem_ctrls0_0.totalIdleTime         13455794500                       # Total Idle time Per DRAM Rank
system.mem_ctrls0_0.memoryStateTime::IDLE     30549000                       # Time in different power states
system.mem_ctrls0_0.memoryStateTime::REF    402488000                       # Time in different power states
system.mem_ctrls0_0.memoryStateTime::SREF   3065151250                       # Time in different power states
system.mem_ctrls0_0.memoryStateTime::PRE_PDN   1687451750                       # Time in different power states
system.mem_ctrls0_0.memoryStateTime::ACT    599866750                       # Time in different power states
system.mem_ctrls0_0.memoryStateTime::ACT_PDN   8704167750                       # Time in different power states
system.mem_ctrls0_1.actEnergy                91791840                       # Energy for activate commands per rank (pJ)
system.mem_ctrls0_1.preEnergy                48780930                       # Energy for precharge commands per rank (pJ)
system.mem_ctrls0_1.readEnergy              133589400                       # Energy for read commands per rank (pJ)
system.mem_ctrls0_1.writeEnergy                     0                       # Energy for write commands per rank (pJ)
system.mem_ctrls0_1.refreshEnergy        969287280.000000                       # Energy for refresh commands per rank (pJ)
system.mem_ctrls0_1.actBackEnergy           471953160                       # Energy for active background per rank (pJ)
system.mem_ctrls0_1.preBackEnergy            33401280                       # Energy for precharge background per rank (pJ)
system.mem_ctrls0_1.actPowerDownEnergy     4191340530                       # Energy for active power-down per rank (pJ)
system.mem_ctrls0_1.prePowerDownEnergy      579004800                       # Energy for precharge power-down per rank (pJ)
system.mem_ctrls0_1.selfRefreshEnergy       675804870                       # Energy for self refresh per rank (pJ)
system.mem_ctrls0_1.totalEnergy            7195178970                       # Total energy per rank (pJ)
system.mem_ctrls0_1.averagePower           496.572833                       # Core power per rank (mW)
system.mem_ctrls0_1.totalIdleTime         13361595500                       # Total Idle time Per DRAM Rank
system.mem_ctrls0_1.memoryStateTime::IDLE     25431500                       # Time in different power states
system.mem_ctrls0_1.memoryStateTime::REF    410416000                       # Time in different power states
system.mem_ctrls0_1.memoryStateTime::SREF   2667840750                       # Time in different power states
system.mem_ctrls0_1.memoryStateTime::PRE_PDN   1507736250                       # Time in different power states
system.mem_ctrls0_1.memoryStateTime::ACT    686446500                       # Time in different power states
system.mem_ctrls0_1.memoryStateTime::ACT_PDN   9191803500                       # Time in different power states
system.mem_ctrls1.pwrStateResidencyTicks::UNDEFINED  14489674500                       # Cumulative time (in ticks) in various power states
system.mem_ctrls1.bytes_read::ruby.dir_cntrl1      2269248                       # Number of bytes read from this memory
system.mem_ctrls1.bytes_read::total           2269248                       # Number of bytes read from this memory
system.mem_ctrls1.bytes_written::ruby.dir_cntrl1          512                       # Number of bytes written to this memory
system.mem_ctrls1.bytes_written::total            512                       # Number of bytes written to this memory
system.mem_ctrls1.num_reads::ruby.dir_cntrl1        35457                       # Number of read requests responded to by this memory
system.mem_ctrls1.num_reads::total              35457                       # Number of read requests responded to by this memory
system.mem_ctrls1.num_writes::ruby.dir_cntrl1            8                       # Number of write requests responded to by this memory
system.mem_ctrls1.num_writes::total                 8                       # Number of write requests responded to by this memory
system.mem_ctrls1.bw_read::ruby.dir_cntrl1    156611386                       # Total read bandwidth from this memory (bytes/s)
system.mem_ctrls1.bw_read::total            156611386                       # Total read bandwidth from this memory (bytes/s)
system.mem_ctrls1.bw_write::ruby.dir_cntrl1        35336                       # Write bandwidth from this memory (bytes/s)
system.mem_ctrls1.bw_write::total               35336                       # Write bandwidth from this memory (bytes/s)
system.mem_ctrls1.bw_total::ruby.dir_cntrl1    156646721                       # Total bandwidth to/from this memory (bytes/s)
system.mem_ctrls1.bw_total::total           156646721                       # Total bandwidth to/from this memory (bytes/s)
system.mem_ctrls1.readReqs                      35457                       # Number of read requests accepted
system.mem_ctrls1.writeReqs                         8                       # Number of write requests accepted
system.mem_ctrls1.readBursts                    35457                       # Number of DRAM read bursts, including those serviced by the write queue
system.mem_ctrls1.writeBursts                       8                       # Number of DRAM write bursts, including those merged in the write queue
system.mem_ctrls1.bytesReadDRAM               2269184                       # Total number of bytes read from DRAM
system.mem_ctrls1.bytesReadWrQ                     64                       # Total number of bytes read from write queue
system.mem_ctrls1.bytesWritten                      0                       # Total number of bytes written to DRAM
system.mem_ctrls1.bytesReadSys                2269248                       # Total read bytes from the system interface side
system.mem_ctrls1.bytesWrittenSys                 512                       # Total written bytes from the system interface side
system.mem_ctrls1.servicedByWrQ                     1                       # Number of DRAM read bursts serviced by the write queue
system.mem_ctrls1.mergedWrBursts                    0                       # Number of DRAM write bursts merged with an existing one
system.mem_ctrls1.neitherReadNorWriteReqs            0                       # Number of requests that are neither read nor write
system.mem_ctrls1.perBankRdBursts::0             2338                       # Per bank write bursts
system.mem_ctrls1.perBankRdBursts::1             2071                       # Per bank write bursts
system.mem_ctrls1.perBankRdBursts::2             1912                       # Per bank write bursts
system.mem_ctrls1.perBankRdBursts::3             2025                       # Per bank write bursts
system.mem_ctrls1.perBankRdBursts::4             2088                       # Per bank write bursts
system.mem_ctrls1.perBankRdBursts::5             2073                       # Per bank write bursts
system.mem_ctrls1.perBankRdBursts::6             2294                       # Per bank write bursts
system.mem_ctrls1.perBankRdBursts::7             2194                       # Per bank write bursts
system.mem_ctrls1.perBankRdBursts::8             2080                       # Per bank write bursts
system.mem_ctrls1.perBankRdBursts::9             2293                       # Per bank write bursts
system.mem_ctrls1.perBankRdBursts::10            2173                       # Per bank write bursts
system.mem_ctrls1.perBankRdBursts::11            2132                       # Per bank write bursts
system.mem_ctrls1.perBankRdBursts::12            2230                       # Per bank write bursts
system.mem_ctrls1.perBankRdBursts::13            2687                       # Per bank write bursts
system.mem_ctrls1.perBankRdBursts::14            2432                       # Per bank write bursts
system.mem_ctrls1.perBankRdBursts::15            2434                       # Per bank write bursts
system.mem_ctrls1.perBankWrBursts::0                0                       # Per bank write bursts
system.mem_ctrls1.perBankWrBursts::1                0                       # Per bank write bursts
system.mem_ctrls1.perBankWrBursts::2                0                       # Per bank write bursts
system.mem_ctrls1.perBankWrBursts::3                0                       # Per bank write bursts
system.mem_ctrls1.perBankWrBursts::4                0                       # Per bank write bursts
system.mem_ctrls1.perBankWrBursts::5                0                       # Per bank write bursts
system.mem_ctrls1.perBankWrBursts::6                0                       # Per bank write bursts
system.mem_ctrls1.perBankWrBursts::7                0                       # Per bank write bursts
system.mem_ctrls1.perBankWrBursts::8                0                       # Per bank write bursts
system.mem_ctrls1.perBankWrBursts::9                0                       # Per bank write bursts
system.mem_ctrls1.perBankWrBursts::10               0                       # Per bank write bursts
system.mem_ctrls1.perBankWrBursts::11               0                       # Per bank write bursts
system.mem_ctrls1.perBankWrBursts::12               0                       # Per bank write bursts
system.mem_ctrls1.perBankWrBursts::13               0                       # Per bank write bursts
system.mem_ctrls1.perBankWrBursts::14               0                       # Per bank write bursts
system.mem_ctrls1.perBankWrBursts::15               0                       # Per bank write bursts
system.mem_ctrls1.numRdRetry                        0                       # Number of times read queue was full causing retry
system.mem_ctrls1.numWrRetry                        0                       # Number of times write queue was full causing retry
system.mem_ctrls1.totGap                  14488867000                       # Total gap between requests
system.mem_ctrls1.readPktSize::0                    0                       # Read request sizes (log2)
system.mem_ctrls1.readPktSize::1                    0                       # Read request sizes (log2)
system.mem_ctrls1.readPktSize::2                    0                       # Read request sizes (log2)
system.mem_ctrls1.readPktSize::3                    0                       # Read request sizes (log2)
system.mem_ctrls1.readPktSize::4                    0                       # Read request sizes (log2)
system.mem_ctrls1.readPktSize::5                    0                       # Read request sizes (log2)
system.mem_ctrls1.readPktSize::6                35457                       # Read request sizes (log2)
system.mem_ctrls1.writePktSize::0                   0                       # Write request sizes (log2)
system.mem_ctrls1.writePktSize::1                   0                       # Write request sizes (log2)
system.mem_ctrls1.writePktSize::2                   0                       # Write request sizes (log2)
system.mem_ctrls1.writePktSize::3                   0                       # Write request sizes (log2)
system.mem_ctrls1.writePktSize::4                   0                       # Write request sizes (log2)
system.mem_ctrls1.writePktSize::5                   0                       # Write request sizes (log2)
system.mem_ctrls1.writePktSize::6                   8                       # Write request sizes (log2)
system.mem_ctrls1.rdQLenPdf::0                  26658                       # What read queue length does an incoming req see
system.mem_ctrls1.rdQLenPdf::1                   5966                       # What read queue length does an incoming req see
system.mem_ctrls1.rdQLenPdf::2                   1681                       # What read queue length does an incoming req see
system.mem_ctrls1.rdQLenPdf::3                    663                       # What read queue length does an incoming req see
system.mem_ctrls1.rdQLenPdf::4                    266                       # What read queue length does an incoming req see
system.mem_ctrls1.rdQLenPdf::5                    122                       # What read queue length does an incoming req see
system.mem_ctrls1.rdQLenPdf::6                     63                       # What read queue length does an incoming req see
system.mem_ctrls1.rdQLenPdf::7                     20                       # What read queue length does an incoming req see
system.mem_ctrls1.rdQLenPdf::8                      5                       # What read queue length does an incoming req see
system.mem_ctrls1.rdQLenPdf::9                      3                       # What read queue length does an incoming req see
system.mem_ctrls1.rdQLenPdf::10                     4                       # What read queue length does an incoming req see
system.mem_ctrls1.rdQLenPdf::11                     3                       # What read queue length does an incoming req see
system.mem_ctrls1.rdQLenPdf::12                     2                       # What read queue length does an incoming req see
system.mem_ctrls1.rdQLenPdf::13                     0                       # What read queue length does an incoming req see
system.mem_ctrls1.rdQLenPdf::14                     0                       # What read queue length does an incoming req see
system.mem_ctrls1.rdQLenPdf::15                     0                       # What read queue length does an incoming req see
system.mem_ctrls1.rdQLenPdf::16                     0                       # What read queue length does an incoming req see
system.mem_ctrls1.rdQLenPdf::17                     0                       # What read queue length does an incoming req see
system.mem_ctrls1.rdQLenPdf::18                     0                       # What read queue length does an incoming req see
system.mem_ctrls1.rdQLenPdf::19                     0                       # What read queue length does an incoming req see
system.mem_ctrls1.rdQLenPdf::20                     0                       # What read queue length does an incoming req see
system.mem_ctrls1.rdQLenPdf::21                     0                       # What read queue length does an incoming req see
system.mem_ctrls1.rdQLenPdf::22                     0                       # What read queue length does an incoming req see
system.mem_ctrls1.rdQLenPdf::23                     0                       # What read queue length does an incoming req see
system.mem_ctrls1.rdQLenPdf::24                     0                       # What read queue length does an incoming req see
system.mem_ctrls1.rdQLenPdf::25                     0                       # What read queue length does an incoming req see
system.mem_ctrls1.rdQLenPdf::26                     0                       # What read queue length does an incoming req see
system.mem_ctrls1.rdQLenPdf::27                     0                       # What read queue length does an incoming req see
system.mem_ctrls1.rdQLenPdf::28                     0                       # What read queue length does an incoming req see
system.mem_ctrls1.rdQLenPdf::29                     0                       # What read queue length does an incoming req see
system.mem_ctrls1.rdQLenPdf::30                     0                       # What read queue length does an incoming req see
system.mem_ctrls1.rdQLenPdf::31                     0                       # What read queue length does an incoming req see
system.mem_ctrls1.wrQLenPdf::0                      1                       # What write queue length does an incoming req see
system.mem_ctrls1.wrQLenPdf::1                      1                       # What write queue length does an incoming req see
system.mem_ctrls1.wrQLenPdf::2                      1                       # What write queue length does an incoming req see
system.mem_ctrls1.wrQLenPdf::3                      1                       # What write queue length does an incoming req see
system.mem_ctrls1.wrQLenPdf::4                      1                       # What write queue length does an incoming req see
system.mem_ctrls1.wrQLenPdf::5                      1                       # What write queue length does an incoming req see
system.mem_ctrls1.wrQLenPdf::6                      1                       # What write queue length does an incoming req see
system.mem_ctrls1.wrQLenPdf::7                      1                       # What write queue length does an incoming req see
system.mem_ctrls1.wrQLenPdf::8                      0                       # What write queue length does an incoming req see
system.mem_ctrls1.wrQLenPdf::9                      0                       # What write queue length does an incoming req see
system.mem_ctrls1.wrQLenPdf::10                     0                       # What write queue length does an incoming req see
system.mem_ctrls1.wrQLenPdf::11                     0                       # What write queue length does an incoming req see
system.mem_ctrls1.wrQLenPdf::12                     0                       # What write queue length does an incoming req see
system.mem_ctrls1.wrQLenPdf::13                     0                       # What write queue length does an incoming req see
system.mem_ctrls1.wrQLenPdf::14                     0                       # What write queue length does an incoming req see
system.mem_ctrls1.wrQLenPdf::15                     0                       # What write queue length does an incoming req see
system.mem_ctrls1.wrQLenPdf::16                     0                       # What write queue length does an incoming req see
system.mem_ctrls1.wrQLenPdf::17                     0                       # What write queue length does an incoming req see
system.mem_ctrls1.wrQLenPdf::18                     0                       # What write queue length does an incoming req see
system.mem_ctrls1.wrQLenPdf::19                     0                       # What write queue length does an incoming req see
system.mem_ctrls1.wrQLenPdf::20                     0                       # What write queue length does an incoming req see
system.mem_ctrls1.wrQLenPdf::21                     0                       # What write queue length does an incoming req see
system.mem_ctrls1.wrQLenPdf::22                     0                       # What write queue length does an incoming req see
system.mem_ctrls1.wrQLenPdf::23                     0                       # What write queue length does an incoming req see
system.mem_ctrls1.wrQLenPdf::24                     0                       # What write queue length does an incoming req see
system.mem_ctrls1.wrQLenPdf::25                     0                       # What write queue length does an incoming req see
system.mem_ctrls1.wrQLenPdf::26                     0                       # What write queue length does an incoming req see
system.mem_ctrls1.wrQLenPdf::27                     0                       # What write queue length does an incoming req see
system.mem_ctrls1.wrQLenPdf::28                     0                       # What write queue length does an incoming req see
system.mem_ctrls1.wrQLenPdf::29                     0                       # What write queue length does an incoming req see
system.mem_ctrls1.wrQLenPdf::30                     0                       # What write queue length does an incoming req see
system.mem_ctrls1.wrQLenPdf::31                     0                       # What write queue length does an incoming req see
system.mem_ctrls1.wrQLenPdf::32                     0                       # What write queue length does an incoming req see
system.mem_ctrls1.wrQLenPdf::33                     0                       # What write queue length does an incoming req see
system.mem_ctrls1.wrQLenPdf::34                     0                       # What write queue length does an incoming req see
system.mem_ctrls1.wrQLenPdf::35                     0                       # What write queue length does an incoming req see
system.mem_ctrls1.wrQLenPdf::36                     0                       # What write queue length does an incoming req see
system.mem_ctrls1.wrQLenPdf::37                     0                       # What write queue length does an incoming req see
system.mem_ctrls1.wrQLenPdf::38                     0                       # What write queue length does an incoming req see
system.mem_ctrls1.wrQLenPdf::39                     0                       # What write queue length does an incoming req see
system.mem_ctrls1.wrQLenPdf::40                     0                       # What write queue length does an incoming req see
system.mem_ctrls1.wrQLenPdf::41                     0                       # What write queue length does an incoming req see
system.mem_ctrls1.wrQLenPdf::42                     0                       # What write queue length does an incoming req see
system.mem_ctrls1.wrQLenPdf::43                     0                       # What write queue length does an incoming req see
system.mem_ctrls1.wrQLenPdf::44                     0                       # What write queue length does an incoming req see
system.mem_ctrls1.wrQLenPdf::45                     0                       # What write queue length does an incoming req see
system.mem_ctrls1.wrQLenPdf::46                     0                       # What write queue length does an incoming req see
system.mem_ctrls1.wrQLenPdf::47                     0                       # What write queue length does an incoming req see
system.mem_ctrls1.wrQLenPdf::48                     0                       # What write queue length does an incoming req see
system.mem_ctrls1.wrQLenPdf::49                     0                       # What write queue length does an incoming req see
system.mem_ctrls1.wrQLenPdf::50                     0                       # What write queue length does an incoming req see
system.mem_ctrls1.wrQLenPdf::51                     0                       # What write queue length does an incoming req see
system.mem_ctrls1.wrQLenPdf::52                     0                       # What write queue length does an incoming req see
system.mem_ctrls1.wrQLenPdf::53                     0                       # What write queue length does an incoming req see
system.mem_ctrls1.wrQLenPdf::54                     0                       # What write queue length does an incoming req see
system.mem_ctrls1.wrQLenPdf::55                     0                       # What write queue length does an incoming req see
system.mem_ctrls1.wrQLenPdf::56                     0                       # What write queue length does an incoming req see
system.mem_ctrls1.wrQLenPdf::57                     0                       # What write queue length does an incoming req see
system.mem_ctrls1.wrQLenPdf::58                     0                       # What write queue length does an incoming req see
system.mem_ctrls1.wrQLenPdf::59                     0                       # What write queue length does an incoming req see
system.mem_ctrls1.wrQLenPdf::60                     0                       # What write queue length does an incoming req see
system.mem_ctrls1.wrQLenPdf::61                     0                       # What write queue length does an incoming req see
system.mem_ctrls1.wrQLenPdf::62                     0                       # What write queue length does an incoming req see
system.mem_ctrls1.wrQLenPdf::63                     0                       # What write queue length does an incoming req see
system.mem_ctrls1.bytesPerActivate::samples        23479                       # Bytes accessed per row activation
system.mem_ctrls1.bytesPerActivate::mean    96.636484                       # Bytes accessed per row activation
system.mem_ctrls1.bytesPerActivate::gmean    77.656899                       # Bytes accessed per row activation
system.mem_ctrls1.bytesPerActivate::stdev   103.985601                       # Bytes accessed per row activation
system.mem_ctrls1.bytesPerActivate::0-127        19894     84.73%     84.73% # Bytes accessed per row activation
system.mem_ctrls1.bytesPerActivate::128-255         2061      8.78%     93.51% # Bytes accessed per row activation
system.mem_ctrls1.bytesPerActivate::256-383          342      1.46%     94.97% # Bytes accessed per row activation
system.mem_ctrls1.bytesPerActivate::384-511          199      0.85%     95.81% # Bytes accessed per row activation
system.mem_ctrls1.bytesPerActivate::512-639          919      3.91%     99.73% # Bytes accessed per row activation
system.mem_ctrls1.bytesPerActivate::640-767           55      0.23%     99.96% # Bytes accessed per row activation
system.mem_ctrls1.bytesPerActivate::768-895            1      0.00%     99.97% # Bytes accessed per row activation
system.mem_ctrls1.bytesPerActivate::1024-1151            8      0.03%    100.00% # Bytes accessed per row activation
system.mem_ctrls1.bytesPerActivate::total        23479                       # Bytes accessed per row activation
system.mem_ctrls1.totQLat                  1032274750                       # Total ticks spent queuing
system.mem_ctrls1.totMemAccLat             1697074750                       # Total ticks spent from burst creation until serviced by the DRAM
system.mem_ctrls1.totBusLat                 177280000                       # Total ticks spent in databus transfers
system.mem_ctrls1.avgQLat                    29114.25                       # Average queueing delay per DRAM burst
system.mem_ctrls1.avgBusLat                   5000.00                       # Average bus latency per DRAM burst
system.mem_ctrls1.avgMemAccLat               47864.25                       # Average memory access latency per DRAM burst
system.mem_ctrls1.avgRdBW                      156.61                       # Average DRAM read bandwidth in MiByte/s
system.mem_ctrls1.avgWrBW                        0.00                       # Average achieved write bandwidth in MiByte/s
system.mem_ctrls1.avgRdBWSys                   156.61                       # Average system read bandwidth in MiByte/s
system.mem_ctrls1.avgWrBWSys                     0.04                       # Average system write bandwidth in MiByte/s
system.mem_ctrls1.peakBW                     12800.00                       # Theoretical peak bandwidth in MiByte/s
system.mem_ctrls1.busUtil                        1.22                       # Data bus utilization in percentage
system.mem_ctrls1.busUtilRead                    1.22                       # Data bus utilization in percentage for reads
system.mem_ctrls1.busUtilWrite                   0.00                       # Data bus utilization in percentage for writes
system.mem_ctrls1.avgRdQLen                      1.26                       # Average read queue length when enqueuing
system.mem_ctrls1.avgWrQLen                      1.09                       # Average write queue length when enqueuing
system.mem_ctrls1.readRowHits                   11975                       # Number of row buffer hits during reads
system.mem_ctrls1.writeRowHits                      0                       # Number of row buffer hits during writes
system.mem_ctrls1.readRowHitRate                33.77                       # Row buffer hit rate for reads
system.mem_ctrls1.writeRowHitRate                0.00                       # Row buffer hit rate for writes
system.mem_ctrls1.avgGap                    408539.88                       # Average gap between requests
system.mem_ctrls1.pageHitRate                   33.77                       # Row buffer hit rate, read and write combined
system.mem_ctrls1_0.actEnergy                77161980                       # Energy for activate commands per rank (pJ)
system.mem_ctrls1_0.preEnergy                41008770                       # Energy for precharge commands per rank (pJ)
system.mem_ctrls1_0.readEnergy              121344300                       # Energy for read commands per rank (pJ)
system.mem_ctrls1_0.writeEnergy                     0                       # Energy for write commands per rank (pJ)
system.mem_ctrls1_0.refreshEnergy        945930960.000000                       # Energy for refresh commands per rank (pJ)
system.mem_ctrls1_0.actBackEnergy           428067150                       # Energy for active background per rank (pJ)
system.mem_ctrls1_0.preBackEnergy            30285120                       # Energy for precharge background per rank (pJ)
system.mem_ctrls1_0.actPowerDownEnergy     3993747180                       # Energy for active power-down per rank (pJ)
system.mem_ctrls1_0.prePowerDownEnergy      625316160                       # Energy for precharge power-down per rank (pJ)
system.mem_ctrls1_0.selfRefreshEnergy       784708905                       # Energy for self refresh per rank (pJ)
system.mem_ctrls1_0.totalEnergy            7047672555                       # Total energy per rank (pJ)
system.mem_ctrls1_0.averagePower           486.392728                       # Core power per rank (mW)
system.mem_ctrls1_0.totalIdleTime         13471188500                       # Total Idle time Per DRAM Rank
system.mem_ctrls1_0.memoryStateTime::IDLE     29601500                       # Time in different power states
system.mem_ctrls1_0.memoryStateTime::REF    400644000                       # Time in different power states
system.mem_ctrls1_0.memoryStateTime::SREF   3085195500                       # Time in different power states
system.mem_ctrls1_0.memoryStateTime::PRE_PDN   1628429750                       # Time in different power states
system.mem_ctrls1_0.memoryStateTime::ACT    587842750                       # Time in different power states
system.mem_ctrls1_0.memoryStateTime::ACT_PDN   8757961000                       # Time in different power states
system.mem_ctrls1_1.actEnergy                90492360                       # Energy for activate commands per rank (pJ)
system.mem_ctrls1_1.preEnergy                48094035                       # Energy for precharge commands per rank (pJ)
system.mem_ctrls1_1.readEnergy              131811540                       # Energy for read commands per rank (pJ)
system.mem_ctrls1_1.writeEnergy                     0                       # Energy for write commands per rank (pJ)
system.mem_ctrls1_1.refreshEnergy        969287280.000000                       # Energy for refresh commands per rank (pJ)
system.mem_ctrls1_1.actBackEnergy           467915280                       # Energy for active background per rank (pJ)
system.mem_ctrls1_1.preBackEnergy            32861760                       # Energy for precharge background per rank (pJ)
system.mem_ctrls1_1.actPowerDownEnergy     4157114880                       # Energy for active power-down per rank (pJ)
system.mem_ctrls1_1.prePowerDownEnergy      622068000                       # Energy for precharge power-down per rank (pJ)
system.mem_ctrls1_1.selfRefreshEnergy       667215720                       # Energy for self refresh per rank (pJ)
system.mem_ctrls1_1.totalEnergy            7187205735                       # Total energy per rank (pJ)
system.mem_ctrls1_1.averagePower           496.022563                       # Core power per rank (mW)
system.mem_ctrls1_1.totalIdleTime         13372538250                       # Total Idle time Per DRAM Rank
system.mem_ctrls1_1.memoryStateTime::IDLE     24793000                       # Time in different power states
system.mem_ctrls1_1.memoryStateTime::REF    410410000                       # Time in different power states
system.mem_ctrls1_1.memoryStateTime::SREF   2640752250                       # Time in different power states
system.mem_ctrls1_1.memoryStateTime::PRE_PDN   1619813500                       # Time in different power states
system.mem_ctrls1_1.memoryStateTime::ACT    677406500                       # Time in different power states
system.mem_ctrls1_1.memoryStateTime::ACT_PDN   9116499250                       # Time in different power states
system.mem_ctrls2.pwrStateResidencyTicks::UNDEFINED  14489674500                       # Cumulative time (in ticks) in various power states
system.mem_ctrls2.bytes_read::ruby.dir_cntrl2      2279040                       # Number of bytes read from this memory
system.mem_ctrls2.bytes_read::total           2279040                       # Number of bytes read from this memory
system.mem_ctrls2.bytes_written::ruby.dir_cntrl2          192                       # Number of bytes written to this memory
system.mem_ctrls2.bytes_written::total            192                       # Number of bytes written to this memory
system.mem_ctrls2.num_reads::ruby.dir_cntrl2        35610                       # Number of read requests responded to by this memory
system.mem_ctrls2.num_reads::total              35610                       # Number of read requests responded to by this memory
system.mem_ctrls2.num_writes::ruby.dir_cntrl2            3                       # Number of write requests responded to by this memory
system.mem_ctrls2.num_writes::total                 3                       # Number of write requests responded to by this memory
system.mem_ctrls2.bw_read::ruby.dir_cntrl2    157287177                       # Total read bandwidth from this memory (bytes/s)
system.mem_ctrls2.bw_read::total            157287177                       # Total read bandwidth from this memory (bytes/s)
system.mem_ctrls2.bw_write::ruby.dir_cntrl2        13251                       # Write bandwidth from this memory (bytes/s)
system.mem_ctrls2.bw_write::total               13251                       # Write bandwidth from this memory (bytes/s)
system.mem_ctrls2.bw_total::ruby.dir_cntrl2    157300428                       # Total bandwidth to/from this memory (bytes/s)
system.mem_ctrls2.bw_total::total           157300428                       # Total bandwidth to/from this memory (bytes/s)
system.mem_ctrls2.readReqs                      35610                       # Number of read requests accepted
system.mem_ctrls2.writeReqs                         3                       # Number of write requests accepted
system.mem_ctrls2.readBursts                    35610                       # Number of DRAM read bursts, including those serviced by the write queue
system.mem_ctrls2.writeBursts                       3                       # Number of DRAM write bursts, including those merged in the write queue
system.mem_ctrls2.bytesReadDRAM               2279040                       # Total number of bytes read from DRAM
system.mem_ctrls2.bytesReadWrQ                      0                       # Total number of bytes read from write queue
system.mem_ctrls2.bytesWritten                      0                       # Total number of bytes written to DRAM
system.mem_ctrls2.bytesReadSys                2279040                       # Total read bytes from the system interface side
system.mem_ctrls2.bytesWrittenSys                 192                       # Total written bytes from the system interface side
system.mem_ctrls2.servicedByWrQ                     0                       # Number of DRAM read bursts serviced by the write queue
system.mem_ctrls2.mergedWrBursts                    0                       # Number of DRAM write bursts merged with an existing one
system.mem_ctrls2.neitherReadNorWriteReqs            0                       # Number of requests that are neither read nor write
system.mem_ctrls2.perBankRdBursts::0             2361                       # Per bank write bursts
system.mem_ctrls2.perBankRdBursts::1             2091                       # Per bank write bursts
system.mem_ctrls2.perBankRdBursts::2             1898                       # Per bank write bursts
system.mem_ctrls2.perBankRdBursts::3             2025                       # Per bank write bursts
system.mem_ctrls2.perBankRdBursts::4             2093                       # Per bank write bursts
system.mem_ctrls2.perBankRdBursts::5             2095                       # Per bank write bursts
system.mem_ctrls2.perBankRdBursts::6             2290                       # Per bank write bursts
system.mem_ctrls2.perBankRdBursts::7             2186                       # Per bank write bursts
system.mem_ctrls2.perBankRdBursts::8             2087                       # Per bank write bursts
system.mem_ctrls2.perBankRdBursts::9             2298                       # Per bank write bursts
system.mem_ctrls2.perBankRdBursts::10            2208                       # Per bank write bursts
system.mem_ctrls2.perBankRdBursts::11            2125                       # Per bank write bursts
system.mem_ctrls2.perBankRdBursts::12            2269                       # Per bank write bursts
system.mem_ctrls2.perBankRdBursts::13            2693                       # Per bank write bursts
system.mem_ctrls2.perBankRdBursts::14            2443                       # Per bank write bursts
system.mem_ctrls2.perBankRdBursts::15            2448                       # Per bank write bursts
system.mem_ctrls2.perBankWrBursts::0                0                       # Per bank write bursts
system.mem_ctrls2.perBankWrBursts::1                0                       # Per bank write bursts
system.mem_ctrls2.perBankWrBursts::2                0                       # Per bank write bursts
system.mem_ctrls2.perBankWrBursts::3                0                       # Per bank write bursts
system.mem_ctrls2.perBankWrBursts::4                0                       # Per bank write bursts
system.mem_ctrls2.perBankWrBursts::5                0                       # Per bank write bursts
system.mem_ctrls2.perBankWrBursts::6                0                       # Per bank write bursts
system.mem_ctrls2.perBankWrBursts::7                0                       # Per bank write bursts
system.mem_ctrls2.perBankWrBursts::8                0                       # Per bank write bursts
system.mem_ctrls2.perBankWrBursts::9                0                       # Per bank write bursts
system.mem_ctrls2.perBankWrBursts::10               0                       # Per bank write bursts
system.mem_ctrls2.perBankWrBursts::11               0                       # Per bank write bursts
system.mem_ctrls2.perBankWrBursts::12               0                       # Per bank write bursts
system.mem_ctrls2.perBankWrBursts::13               0                       # Per bank write bursts
system.mem_ctrls2.perBankWrBursts::14               0                       # Per bank write bursts
system.mem_ctrls2.perBankWrBursts::15               0                       # Per bank write bursts
system.mem_ctrls2.numRdRetry                        0                       # Number of times read queue was full causing retry
system.mem_ctrls2.numWrRetry                        0                       # Number of times write queue was full causing retry
system.mem_ctrls2.totGap                  14488408500                       # Total gap between requests
system.mem_ctrls2.readPktSize::0                    0                       # Read request sizes (log2)
system.mem_ctrls2.readPktSize::1                    0                       # Read request sizes (log2)
system.mem_ctrls2.readPktSize::2                    0                       # Read request sizes (log2)
system.mem_ctrls2.readPktSize::3                    0                       # Read request sizes (log2)
system.mem_ctrls2.readPktSize::4                    0                       # Read request sizes (log2)
system.mem_ctrls2.readPktSize::5                    0                       # Read request sizes (log2)
system.mem_ctrls2.readPktSize::6                35610                       # Read request sizes (log2)
system.mem_ctrls2.writePktSize::0                   0                       # Write request sizes (log2)
system.mem_ctrls2.writePktSize::1                   0                       # Write request sizes (log2)
system.mem_ctrls2.writePktSize::2                   0                       # Write request sizes (log2)
system.mem_ctrls2.writePktSize::3                   0                       # Write request sizes (log2)
system.mem_ctrls2.writePktSize::4                   0                       # Write request sizes (log2)
system.mem_ctrls2.writePktSize::5                   0                       # Write request sizes (log2)
system.mem_ctrls2.writePktSize::6                   3                       # Write request sizes (log2)
system.mem_ctrls2.rdQLenPdf::0                  26668                       # What read queue length does an incoming req see
system.mem_ctrls2.rdQLenPdf::1                   6046                       # What read queue length does an incoming req see
system.mem_ctrls2.rdQLenPdf::2                   1732                       # What read queue length does an incoming req see
system.mem_ctrls2.rdQLenPdf::3                    667                       # What read queue length does an incoming req see
system.mem_ctrls2.rdQLenPdf::4                    297                       # What read queue length does an incoming req see
system.mem_ctrls2.rdQLenPdf::5                    123                       # What read queue length does an incoming req see
system.mem_ctrls2.rdQLenPdf::6                     48                       # What read queue length does an incoming req see
system.mem_ctrls2.rdQLenPdf::7                     23                       # What read queue length does an incoming req see
system.mem_ctrls2.rdQLenPdf::8                      1                       # What read queue length does an incoming req see
system.mem_ctrls2.rdQLenPdf::9                      4                       # What read queue length does an incoming req see
system.mem_ctrls2.rdQLenPdf::10                     1                       # What read queue length does an incoming req see
system.mem_ctrls2.rdQLenPdf::11                     0                       # What read queue length does an incoming req see
system.mem_ctrls2.rdQLenPdf::12                     0                       # What read queue length does an incoming req see
system.mem_ctrls2.rdQLenPdf::13                     0                       # What read queue length does an incoming req see
system.mem_ctrls2.rdQLenPdf::14                     0                       # What read queue length does an incoming req see
system.mem_ctrls2.rdQLenPdf::15                     0                       # What read queue length does an incoming req see
system.mem_ctrls2.rdQLenPdf::16                     0                       # What read queue length does an incoming req see
system.mem_ctrls2.rdQLenPdf::17                     0                       # What read queue length does an incoming req see
system.mem_ctrls2.rdQLenPdf::18                     0                       # What read queue length does an incoming req see
system.mem_ctrls2.rdQLenPdf::19                     0                       # What read queue length does an incoming req see
system.mem_ctrls2.rdQLenPdf::20                     0                       # What read queue length does an incoming req see
system.mem_ctrls2.rdQLenPdf::21                     0                       # What read queue length does an incoming req see
system.mem_ctrls2.rdQLenPdf::22                     0                       # What read queue length does an incoming req see
system.mem_ctrls2.rdQLenPdf::23                     0                       # What read queue length does an incoming req see
system.mem_ctrls2.rdQLenPdf::24                     0                       # What read queue length does an incoming req see
system.mem_ctrls2.rdQLenPdf::25                     0                       # What read queue length does an incoming req see
system.mem_ctrls2.rdQLenPdf::26                     0                       # What read queue length does an incoming req see
system.mem_ctrls2.rdQLenPdf::27                     0                       # What read queue length does an incoming req see
system.mem_ctrls2.rdQLenPdf::28                     0                       # What read queue length does an incoming req see
system.mem_ctrls2.rdQLenPdf::29                     0                       # What read queue length does an incoming req see
system.mem_ctrls2.rdQLenPdf::30                     0                       # What read queue length does an incoming req see
system.mem_ctrls2.rdQLenPdf::31                     0                       # What read queue length does an incoming req see
system.mem_ctrls2.wrQLenPdf::0                      1                       # What write queue length does an incoming req see
system.mem_ctrls2.wrQLenPdf::1                      1                       # What write queue length does an incoming req see
system.mem_ctrls2.wrQLenPdf::2                      1                       # What write queue length does an incoming req see
system.mem_ctrls2.wrQLenPdf::3                      0                       # What write queue length does an incoming req see
system.mem_ctrls2.wrQLenPdf::4                      0                       # What write queue length does an incoming req see
system.mem_ctrls2.wrQLenPdf::5                      0                       # What write queue length does an incoming req see
system.mem_ctrls2.wrQLenPdf::6                      0                       # What write queue length does an incoming req see
system.mem_ctrls2.wrQLenPdf::7                      0                       # What write queue length does an incoming req see
system.mem_ctrls2.wrQLenPdf::8                      0                       # What write queue length does an incoming req see
system.mem_ctrls2.wrQLenPdf::9                      0                       # What write queue length does an incoming req see
system.mem_ctrls2.wrQLenPdf::10                     0                       # What write queue length does an incoming req see
system.mem_ctrls2.wrQLenPdf::11                     0                       # What write queue length does an incoming req see
system.mem_ctrls2.wrQLenPdf::12                     0                       # What write queue length does an incoming req see
system.mem_ctrls2.wrQLenPdf::13                     0                       # What write queue length does an incoming req see
system.mem_ctrls2.wrQLenPdf::14                     0                       # What write queue length does an incoming req see
system.mem_ctrls2.wrQLenPdf::15                     0                       # What write queue length does an incoming req see
system.mem_ctrls2.wrQLenPdf::16                     0                       # What write queue length does an incoming req see
system.mem_ctrls2.wrQLenPdf::17                     0                       # What write queue length does an incoming req see
system.mem_ctrls2.wrQLenPdf::18                     0                       # What write queue length does an incoming req see
system.mem_ctrls2.wrQLenPdf::19                     0                       # What write queue length does an incoming req see
system.mem_ctrls2.wrQLenPdf::20                     0                       # What write queue length does an incoming req see
system.mem_ctrls2.wrQLenPdf::21                     0                       # What write queue length does an incoming req see
system.mem_ctrls2.wrQLenPdf::22                     0                       # What write queue length does an incoming req see
system.mem_ctrls2.wrQLenPdf::23                     0                       # What write queue length does an incoming req see
system.mem_ctrls2.wrQLenPdf::24                     0                       # What write queue length does an incoming req see
system.mem_ctrls2.wrQLenPdf::25                     0                       # What write queue length does an incoming req see
system.mem_ctrls2.wrQLenPdf::26                     0                       # What write queue length does an incoming req see
system.mem_ctrls2.wrQLenPdf::27                     0                       # What write queue length does an incoming req see
system.mem_ctrls2.wrQLenPdf::28                     0                       # What write queue length does an incoming req see
system.mem_ctrls2.wrQLenPdf::29                     0                       # What write queue length does an incoming req see
system.mem_ctrls2.wrQLenPdf::30                     0                       # What write queue length does an incoming req see
system.mem_ctrls2.wrQLenPdf::31                     0                       # What write queue length does an incoming req see
system.mem_ctrls2.wrQLenPdf::32                     0                       # What write queue length does an incoming req see
system.mem_ctrls2.wrQLenPdf::33                     0                       # What write queue length does an incoming req see
system.mem_ctrls2.wrQLenPdf::34                     0                       # What write queue length does an incoming req see
system.mem_ctrls2.wrQLenPdf::35                     0                       # What write queue length does an incoming req see
system.mem_ctrls2.wrQLenPdf::36                     0                       # What write queue length does an incoming req see
system.mem_ctrls2.wrQLenPdf::37                     0                       # What write queue length does an incoming req see
system.mem_ctrls2.wrQLenPdf::38                     0                       # What write queue length does an incoming req see
system.mem_ctrls2.wrQLenPdf::39                     0                       # What write queue length does an incoming req see
system.mem_ctrls2.wrQLenPdf::40                     0                       # What write queue length does an incoming req see
system.mem_ctrls2.wrQLenPdf::41                     0                       # What write queue length does an incoming req see
system.mem_ctrls2.wrQLenPdf::42                     0                       # What write queue length does an incoming req see
system.mem_ctrls2.wrQLenPdf::43                     0                       # What write queue length does an incoming req see
system.mem_ctrls2.wrQLenPdf::44                     0                       # What write queue length does an incoming req see
system.mem_ctrls2.wrQLenPdf::45                     0                       # What write queue length does an incoming req see
system.mem_ctrls2.wrQLenPdf::46                     0                       # What write queue length does an incoming req see
system.mem_ctrls2.wrQLenPdf::47                     0                       # What write queue length does an incoming req see
system.mem_ctrls2.wrQLenPdf::48                     0                       # What write queue length does an incoming req see
system.mem_ctrls2.wrQLenPdf::49                     0                       # What write queue length does an incoming req see
system.mem_ctrls2.wrQLenPdf::50                     0                       # What write queue length does an incoming req see
system.mem_ctrls2.wrQLenPdf::51                     0                       # What write queue length does an incoming req see
system.mem_ctrls2.wrQLenPdf::52                     0                       # What write queue length does an incoming req see
system.mem_ctrls2.wrQLenPdf::53                     0                       # What write queue length does an incoming req see
system.mem_ctrls2.wrQLenPdf::54                     0                       # What write queue length does an incoming req see
system.mem_ctrls2.wrQLenPdf::55                     0                       # What write queue length does an incoming req see
system.mem_ctrls2.wrQLenPdf::56                     0                       # What write queue length does an incoming req see
system.mem_ctrls2.wrQLenPdf::57                     0                       # What write queue length does an incoming req see
system.mem_ctrls2.wrQLenPdf::58                     0                       # What write queue length does an incoming req see
system.mem_ctrls2.wrQLenPdf::59                     0                       # What write queue length does an incoming req see
[...]
system.ruby.L2Cache_Controller.Ack_all::total           73                      
system.ruby.L2Cache_Controller.Unblock   |          70      3.94%      3.94% |          70      3.94%      7.87% |          98      5.51%     13.39% |          98      5.51%     18.90% |          98      5.51%     24.41% |         140      7.87%     32.28% |         140      7.87%     40.16% |         140      7.87%     48.03% |         140      7.87%     55.91% |         140      7.87%     63.78% |         140      7.87%     71.65% |         140      7.87%     79.53% |         112      6.30%     85.83% |         112      6.30%     92.13% |          70      3.94%     96.06% |          70      3.94%    100.00%
system.ruby.L2Cache_Controller.Unblock::total         1778                      
system.ruby.L2Cache_Controller.Exclusive_Unblock |       63892      6.24%      6.24% |       63812      6.23%     12.48% |       63504      6.20%     18.68% |       64088      6.26%     24.94% |       63545      6.21%     31.15% |       63566      6.21%     37.36% |       63699      6.22%     43.58% |       64098      6.26%     49.85% |       64055      6.26%     56.11% |       63693      6.22%     62.33% |       64090      6.26%     68.59% |       64601      6.31%     74.90% |       64517      6.30%     81.20% |       64537      6.31%     87.51% |       64366      6.29%     93.80% |       63476      6.20%    100.00%
system.ruby.L2Cache_Controller.Exclusive_Unblock::total      1023539                      
system.ruby.L2Cache_Controller.NP.L1_GET_INSTR |        1302      6.31%      6.31% |        1330      6.44%     12.75% |        1456      7.05%     19.80% |        1246      6.03%     25.83% |        1316      6.37%     32.20% |        1288      6.24%     38.44% |        1260      6.10%     44.54% |        1260      6.10%     50.64% |        1330      6.44%     57.08% |        1134      5.49%     62.58% |        1232      5.97%     68.54% |        1232      5.97%     74.51% |        1204      5.83%     80.34% |        1274      6.17%     86.51% |        1470      7.12%     93.63% |        1316      6.37%    100.00%
system.ruby.L2Cache_Controller.NP.L1_GET_INSTR::total        20650                      
system.ruby.L2Cache_Controller.NP.L1_GETS |        8470      6.32%      6.32% |        8219      6.13%     12.45% |        7980      5.95%     18.40% |        8358      6.23%     24.64% |        8120      6.06%     30.69% |        8316      6.20%     36.90% |        8386      6.26%     43.15% |        8414      6.28%     49.43% |        8513      6.35%     55.78% |        8316      6.20%     61.98% |        8414      6.28%     68.26% |        8456      6.31%     74.57% |        8638      6.44%     81.01% |        8582      6.40%     87.42% |        8428      6.29%     93.70% |        8442      6.30%    100.00%
system.ruby.L2Cache_Controller.NP.L1_GETS::total       134052                      
system.ruby.L2Cache_Controller.NP.L1_GETX |        8199      6.23%      6.23% |        8267      6.28%     12.50% |        8306      6.31%     18.81% |        8259      6.27%     25.08% |        8273      6.28%     31.36% |        8244      6.26%     37.62% |        8260      6.27%     43.90% |        8258      6.27%     50.17% |        8208      6.23%     56.40% |        8191      6.22%     62.62% |        8222      6.24%     68.86% |        8180      6.21%     75.07% |        8174      6.21%     81.28% |        8235      6.25%     87.53% |        8210      6.23%     93.77% |        8210      6.23%    100.00%
system.ruby.L2Cache_Controller.NP.L1_GETX::total       131696                      
system.ruby.L2Cache_Controller.SS.L1_GET_INSTR |         263      4.88%      4.88% |         162      3.00%      7.88% |         273      5.06%     12.95% |          85      1.58%     14.52% |         413      7.66%     22.18% |         108      2.00%     24.18% |         237      4.40%     28.58% |         144      2.67%     31.25% |         179      3.32%     34.57% |          87      1.61%     36.18% |         199      3.69%     39.87% |         183      3.39%     43.27% |         166      3.08%     46.35% |         177      3.28%     49.63% |        2581     47.87%     97.50% |         135      2.50%    100.00%
system.ruby.L2Cache_Controller.SS.L1_GET_INSTR::total         5392                      
system.ruby.L2Cache_Controller.SS.L1_GETS |           0      0.00%      0.00% |           0      0.00%      0.00% |          14     33.33%     33.33% |           0      0.00%     33.33% |           0      0.00%     33.33% |           0      0.00%     33.33% |           0      0.00%     33.33% |           0      0.00%     33.33% |          14     33.33%     66.67% |          14     33.33%    100.00% |           0      0.00%    100.00% |           0      0.00%    100.00% |           0      0.00%    100.00% |           0      0.00%    100.00% |           0      0.00%    100.00% |           0      0.00%    100.00%
system.ruby.L2Cache_Controller.SS.L1_GETS::total           42                      
system.ruby.L2Cache_Controller.SS.L1_GETX |          14      4.32%      4.32% |          14      4.32%      8.64% |          14      4.32%     12.96% |          28      8.64%     21.60% |          28      8.64%     30.25% |          28      8.64%     38.89% |          28      8.64%     47.53% |          28      8.64%     56.17% |          28      8.64%     64.81% |          28      8.64%     73.46% |          16      4.94%     78.40% |          28      8.64%     87.04% |          14      4.32%     91.36% |          14      4.32%     95.68% |           0      0.00%     95.68% |          14      4.32%    100.00%
system.ruby.L2Cache_Controller.SS.L1_GETX::total          324                      
system.ruby.L2Cache_Controller.SS.L1_UPGRADE |          28      3.71%      3.71% |          28      3.71%      7.43% |          56      7.43%     14.85% |          28      3.71%     18.57% |          28      3.71%     22.28% |          56      7.43%     29.71% |          56      7.43%     37.14% |          56      7.43%     44.56% |          56      7.43%     51.99% |          56      7.43%     59.42% |          68      9.02%     68.44% |          56      7.43%     75.86% |          56      7.43%     83.29% |          56      7.43%     90.72% |          42      5.57%     96.29% |          28      3.71%    100.00%
system.ruby.L2Cache_Controller.SS.L1_UPGRADE::total          754                      
system.ruby.L2Cache_Controller.SS.L2_Replacement_clean |           8     10.96%     10.96% |           8     10.96%     21.92% |           6      8.22%     30.14% |           4      5.48%     35.62% |           2      2.74%     38.36% |           1      1.37%     39.73% |           6      8.22%     47.95% |           3      4.11%     52.05% |           4      5.48%     57.53% |           1      1.37%     58.90% |           2      2.74%     61.64% |           2      2.74%     64.38% |           4      5.48%     69.86% |           6      8.22%     78.08% |          10     13.70%     91.78% |           6      8.22%    100.00%
system.ruby.L2Cache_Controller.SS.L2_Replacement_clean::total           73                      
system.ruby.L2Cache_Controller.M.L1_GET_INSTR |          14     25.00%     25.00% |           0      0.00%     25.00% |           0      0.00%     25.00% |           0      0.00%     25.00% |           0      0.00%     25.00% |           0      0.00%     25.00% |           0      0.00%     25.00% |           0      0.00%     25.00% |          14     25.00%     50.00% |          14     25.00%     75.00% |           0      0.00%     75.00% |           0      0.00%     75.00% |           0      0.00%     75.00% |           0      0.00%     75.00% |          14     25.00%    100.00% |           0      0.00%    100.00%
system.ruby.L2Cache_Controller.M.L1_GET_INSTR::total           56                      
system.ruby.L2Cache_Controller.M.L1_GETS |       46175      6.23%      6.23% |       46198      6.24%     12.47% |       46125      6.23%     18.69% |       46471      6.27%     24.97% |       46086      6.22%     31.19% |       45966      6.20%     37.39% |       46062      6.22%     43.61% |       46277      6.25%     49.85% |       46271      6.25%     56.10% |       46091      6.22%     62.32% |       46377      6.26%     68.58% |       46928      6.33%     74.91% |       46681      6.30%     81.21% |       46795      6.32%     87.53% |       46672      6.30%     93.83% |       45717      6.17%    100.00%
system.ruby.L2Cache_Controller.M.L1_GETS::total       740892                      
system.ruby.L2Cache_Controller.M.L1_GETX |        1006      6.36%      6.36% |        1086      6.86%     13.22% |        1023      6.47%     19.69% |         944      5.97%     25.66% |        1010      6.38%     32.04% |         956      6.04%     38.08% |         907      5.73%     43.82% |        1065      6.73%     50.55% |         979      6.19%     56.73% |        1011      6.39%     63.12% |         993      6.28%     69.40% |         953      6.02%     75.43% |         954      6.03%     81.46% |         855      5.40%     86.86% |        1014      6.41%     93.27% |        1065      6.73%    100.00%
system.ruby.L2Cache_Controller.M.L1_GETX::total        15821                      
system.ruby.L2Cache_Controller.M.L2_Replacement |           3      6.00%      6.00% |           4      8.00%     14.00% |           2      4.00%     18.00% |           3      6.00%     24.00% |           2      4.00%     28.00% |           1      2.00%     30.00% |           2      4.00%     34.00% |           2      4.00%     38.00% |           5     10.00%     48.00% |           4      8.00%     56.00% |           1      2.00%     58.00% |           2      4.00%     62.00% |           6     12.00%     74.00% |           4      8.00%     82.00% |           3      6.00%     88.00% |           6     12.00%    100.00%
system.ruby.L2Cache_Controller.M.L2_Replacement::total           50                      
system.ruby.L2Cache_Controller.M.L2_Replacement_clean |           7      5.38%      5.38% |           7      5.38%     10.77% |           7      5.38%     16.15% |          11      8.46%     24.62% |           9      6.92%     31.54% |           6      4.62%     36.15% |           8      6.15%     42.31% |           9      6.92%     49.23% |          10      7.69%     56.92% |           6      4.62%     61.54% |          12      9.23%     70.77% |           4      3.08%     73.85% |           8      6.15%     80.00% |           8      6.15%     86.15% |          10      7.69%     93.85% |           8      6.15%    100.00%
system.ruby.L2Cache_Controller.M.L2_Replacement_clean::total          130                      
system.ruby.L2Cache_Controller.MT.L1_GETS |          70      3.94%      3.94% |          70      3.94%      7.87% |          98      5.51%     13.39% |          98      5.51%     18.90% |          98      5.51%     24.41% |         140      7.87%     32.28% |         140      7.87%     40.16% |         140      7.87%     48.03% |         140      7.87%     55.91% |         140      7.87%     63.78% |         140      7.87%     71.65% |         140      7.87%     79.53% |         112      6.30%     85.83% |         112      6.30%     92.13% |          70      3.94%     96.06% |          70      3.94%    100.00%
system.ruby.L2Cache_Controller.MT.L1_GETS::total         1778                      
system.ruby.L2Cache_Controller.MT.L1_PUTX |       62926      6.25%      6.25% |       62846      6.24%     12.48% |       62512      6.20%     18.69% |       63094      6.26%     24.95% |       62552      6.21%     31.16% |       62532      6.21%     37.37% |       62663      6.22%     43.59% |       63065      6.26%     49.85% |       63033      6.26%     56.10% |       62660      6.22%     62.32% |       63056      6.26%     68.58% |       63565      6.31%     74.89% |       63509      6.30%     81.20% |       63532      6.31%     87.50% |       63400      6.29%     93.79% |       62513      6.21%    100.00%
system.ruby.L2Cache_Controller.MT.L1_PUTX::total      1007458                      
system.ruby.L2Cache_Controller.M_I.Mem_Ack |          18      7.11%      7.11% |          19      7.51%     14.62% |          15      5.93%     20.55% |          18      7.11%     27.67% |          13      5.14%     32.81% |           8      3.16%     35.97% |          16      6.32%     42.29% |          14      5.53%     47.83% |          19      7.51%     55.34% |          11      4.35%     59.68% |          15      5.93%     65.61% |           8      3.16%     68.77% |          18      7.11%     75.89% |          18      7.11%     83.00% |          23      9.09%     92.09% |          20      7.91%    100.00%
system.ruby.L2Cache_Controller.M_I.Mem_Ack::total          253                      
system.ruby.L2Cache_Controller.I_I.Ack_all |           8     10.96%     10.96% |           8     10.96%     21.92% |           6      8.22%     30.14% |           4      5.48%     35.62% |           2      2.74%     38.36% |           1      1.37%     39.73% |           6      8.22%     47.95% |           3      4.11%     52.05% |           4      5.48%     57.53% |           1      1.37%     58.90% |           2      2.74%     61.64% |           2      2.74%     64.38% |           4      5.48%     69.86% |           6      8.22%     78.08% |          10     13.70%     91.78% |           6      8.22%    100.00%
system.ruby.L2Cache_Controller.I_I.Ack_all::total           73                      
system.ruby.L2Cache_Controller.ISS.Mem_Data |        8470      6.32%      6.32% |        8219      6.13%     12.45% |        7980      5.95%     18.40% |        8358      6.23%     24.64% |        8120      6.06%     30.69% |        8316      6.20%     36.90% |        8386      6.26%     43.15% |        8414      6.28%     49.43% |        8513      6.35%     55.78% |        8316      6.20%     61.98% |        8414      6.28%     68.26% |        8456      6.31%     74.57% |        8638      6.44%     81.01% |        8582      6.40%     87.42% |        8428      6.29%     93.70% |        8442      6.30%    100.00%
system.ruby.L2Cache_Controller.ISS.Mem_Data::total       134052                      
system.ruby.L2Cache_Controller.IS.Mem_Data |        1302      6.31%      6.31% |        1330      6.44%     12.75% |        1456      7.05%     19.80% |        1246      6.03%     25.83% |        1316      6.37%     32.20% |        1288      6.24%     38.44% |        1260      6.10%     44.54% |        1260      6.10%     50.64% |        1330      6.44%     57.08% |        1134      5.49%     62.58% |        1232      5.97%     68.54% |        1232      5.97%     74.51% |        1204      5.83%     80.34% |        1274      6.17%     86.51% |        1470      7.12%     93.63% |        1316      6.37%    100.00%
system.ruby.L2Cache_Controller.IS.Mem_Data::total        20650                      
system.ruby.L2Cache_Controller.IM.Mem_Data |        8199      6.23%      6.23% |        8267      6.28%     12.50% |        8306      6.31%     18.81% |        8259      6.27%     25.08% |        8273      6.28%     31.36% |        8244      6.26%     37.62% |        8260      6.27%     43.90% |        8258      6.27%     50.17% |        8208      6.23%     56.40% |        8191      6.22%     62.62% |        8222      6.24%     68.86% |        8180      6.21%     75.07% |        8174      6.21%     81.28% |        8235      6.25%     87.53% |        8210      6.23%     93.77% |        8210      6.23%    100.00%
system.ruby.L2Cache_Controller.IM.Mem_Data::total       131696                      
system.ruby.L2Cache_Controller.SS_MB.Exclusive_Unblock |          42      3.90%      3.90% |          42      3.90%      7.79% |          70      6.49%     14.29% |          56      5.19%     19.48% |          56      5.19%     24.68% |          84      7.79%     32.47% |          84      7.79%     40.26% |          84      7.79%     48.05% |          84      7.79%     55.84% |          84      7.79%     63.64% |          84      7.79%     71.43% |          84      7.79%     79.22% |          70      6.49%     85.71% |          70      6.49%     92.21% |          42      3.90%     96.10% |          42      3.90%    100.00%
system.ruby.L2Cache_Controller.SS_MB.Exclusive_Unblock::total         1078                      
system.ruby.L2Cache_Controller.MT_MB.Exclusive_Unblock |       63850      6.24%      6.24% |       63770      6.24%     12.48% |       63434      6.20%     18.69% |       64032      6.26%     24.95% |       63489      6.21%     31.16% |       63482      6.21%     37.37% |       63615      6.22%     43.59% |       64014      6.26%     49.85% |       63971      6.26%     56.11% |       63609      6.22%     62.33% |       64006      6.26%     68.59% |       64517      6.31%     74.90% |       64447      6.30%     81.20% |       64467      6.31%     87.50% |       64324      6.29%     93.80% |       63434      6.20%    100.00%
system.ruby.L2Cache_Controller.MT_MB.Exclusive_Unblock::total      1022461                      
system.ruby.L2Cache_Controller.MT_IIB.WB_Data |          69      3.95%      3.95% |          70      4.01%      7.96% |          96      5.50%     13.46% |          95      5.44%     18.90% |          94      5.38%     24.28% |         139      7.96%     32.25% |         138      7.90%     40.15% |         136      7.79%     47.94% |         137      7.85%     55.78% |         137      7.85%     63.63% |         139      7.96%     71.59% |         139      7.96%     79.55% |         110      6.30%     85.85% |         112      6.41%     92.27% |          67      3.84%     96.11% |          68      3.89%    100.00%
system.ruby.L2Cache_Controller.MT_IIB.WB_Data::total         1746                      
system.ruby.L2Cache_Controller.MT_IIB.Unblock |           1      3.12%      3.12% |           0      0.00%      3.12% |           2      6.25%      9.38% |           3      9.38%     18.75% |           4     12.50%     31.25% |           1      3.12%     34.38% |           2      6.25%     40.62% |           4     12.50%     53.12% |           3      9.38%     62.50% |           3      9.38%     71.88% |           1      3.12%     75.00% |           1      3.12%     78.12% |           2      6.25%     84.38% |           0      0.00%     84.38% |           3      9.38%     93.75% |           2      6.25%    100.00%
system.ruby.L2Cache_Controller.MT_IIB.Unblock::total           32                      
system.ruby.L2Cache_Controller.MT_IB.WB_Data |           1      3.12%      3.12% |           0      0.00%      3.12% |           2      6.25%      9.38% |           3      9.38%     18.75% |           4     12.50%     31.25% |           1      3.12%     34.38% |           2      6.25%     40.62% |           4     12.50%     53.12% |           3      9.38%     62.50% |           3      9.38%     71.88% |           1      3.12%     75.00% |           1      3.12%     78.12% |           2      6.25%     84.38% |           0      0.00%     84.38% |           3      9.38%     93.75% |           2      6.25%    100.00%
system.ruby.L2Cache_Controller.MT_IB.WB_Data::total           32                      
system.ruby.L2Cache_Controller.MT_SB.Unblock |          69      3.95%      3.95% |          70      4.01%      7.96% |          96      5.50%     13.46% |          95      5.44%     18.90% |          94      5.38%     24.28% |         139      7.96%     32.25% |         138      7.90%     40.15% |         136      7.79%     47.94% |         137      7.85%     55.78% |         137      7.85%     63.63% |         139      7.96%     71.59% |         139      7.96%     79.55% |         110      6.30%     85.85% |         112      6.41%     92.27% |          67      3.84%     96.11% |          68      3.89%    100.00%
system.ruby.L2Cache_Controller.MT_SB.Unblock::total         1746                      

---------- End Simulation Statistics   ----------
