
---------- Begin Simulation Statistics ----------
sim_seconds                                  0.016009                       # Number of seconds simulated
sim_ticks                                 16009026000                       # Number of ticks simulated
final_tick                                16009026000                       # Number of ticks from beginning of simulation (restored from checkpoints and never reset)
sim_freq                                 1000000000000                       # Frequency of simulated ticks
host_inst_rate                                  54739                       # Simulator instruction rate (inst/s)
host_op_rate                                    94945                       # Simulator op (including micro ops) rate (op/s)
host_tick_rate                               19083351                       # Simulator tick rate (ticks/s)
host_mem_usage                                2038092                       # Number of bytes of host memory used
host_seconds                                   838.90                       # Real time elapsed on the host
sim_insts                                    45920299                       # Number of instructions simulated
sim_ops                                      79649253                       # Number of ops (including micro ops) simulated
system.voltage_domain.voltage                       1                       # Voltage in Volts
system.clk_domain.clock                          1000                       # Clock period in ticks
system.mem_ctrls0.pwrStateResidencyTicks::UNDEFINED  16009026000                       # Cumulative time (in ticks) in various power states
system.mem_ctrls0.bytes_read::ruby.dir_cntrl0      9953536                       # Number of bytes read from this memory
system.mem_ctrls0.bytes_read::total           9953536                       # Number of bytes read from this memory
system.mem_ctrls0.bytes_written::ruby.dir_cntrl0      1079232                       # Number of bytes written to this memory
system.mem_ctrls0.bytes_written::total        1079232                       # Number of bytes written to this memory
system.mem_ctrls0.num_reads::ruby.dir_cntrl0       155524                       # Number of read requests responded to by this memory
system.mem_ctrls0.num_reads::total             155524                       # Number of read requests responded to by this memory
system.mem_ctrls0.num_writes::ruby.dir_cntrl0        16863                       # Number of write requests responded to by this memory
system.mem_ctrls0.num_writes::total             16863                       # Number of write requests responded to by this memory
system.mem_ctrls0.bw_read::ruby.dir_cntrl0    621745258                       # Total read bandwidth from this memory (bytes/s)
system.mem_ctrls0.bw_read::total            621745258                       # Total read bandwidth from this memory (bytes/s)
system.mem_ctrls0.bw_write::ruby.dir_cntrl0     67413970                       # Write bandwidth from this memory (bytes/s)
system.mem_ctrls0.bw_write::total            67413970                       # Write bandwidth from this memory (bytes/s)
system.mem_ctrls0.bw_total::ruby.dir_cntrl0    689159228                       # Total bandwidth to/from this memory (bytes/s)
system.mem_ctrls0.bw_total::total           689159228                       # Total bandwidth to/from this memory (bytes/s)
system.mem_ctrls0.readReqs                     155524                       # Number of read requests accepted
system.mem_ctrls0.avgNetLat                      0.00                       # Average network latency to DRAM controller
system.mem_ctrls0.writeReqs                     16863                       # Number of write requests accepted
system.mem_ctrls0.readBursts                   155524                       # Number of DRAM read bursts, including those serviced by the write queue
system.mem_ctrls0.writeBursts                   16863                       # Number of DRAM write bursts, including those merged in the write queue
system.mem_ctrls0.bytesReadDRAM               9953152                       # Total number of bytes read from DRAM
system.mem_ctrls0.bytesReadWrQ                    384                       # Total number of bytes read from write queue
system.mem_ctrls0.bytesWritten                1077952                       # Total number of bytes written to DRAM
system.mem_ctrls0.bytesReadSys                9953536                       # Total read bytes from the system interface side
system.mem_ctrls0.bytesWrittenSys             1079232                       # Total written bytes from the system interface side
system.mem_ctrls0.servicedByWrQ                     6                       # Number of DRAM read bursts serviced by the write queue
system.mem_ctrls0.mergedWrBursts                    0                       # Number of DRAM write bursts merged with an existing one
system.mem_ctrls0.neitherReadNorWriteReqs            0                       # Number of requests that are neither read nor write
system.mem_ctrls0.perBankRdBursts::0             9810                       # Per bank write bursts
system.mem_ctrls0.perBankRdBursts::1             9722                       # Per bank write bursts
system.mem_ctrls0.perBankRdBursts::2             9335                       # Per bank write bursts
system.mem_ctrls0.perBankRdBursts::3             9415                       # Per bank write bursts
system.mem_ctrls0.perBankRdBursts::4             9195                       # Per bank write bursts
system.mem_ctrls0.perBankRdBursts::5             9056                       # Per bank write bursts
system.mem_ctrls0.perBankRdBursts::6             9315                       # Per bank write bursts
system.mem_ctrls0.perBankRdBursts::7             9296                       # Per bank write bursts
system.mem_ctrls0.perBankRdBursts::8             9285                       # Per bank write bursts
system.mem_ctrls0.perBankRdBursts::9             9508                       # Per bank write bursts
system.mem_ctrls0.perBankRdBursts::10           10239                       # Per bank write bursts
system.mem_ctrls0.perBankRdBursts::11           10271                       # Per bank write bursts
system.mem_ctrls0.perBankRdBursts::12           10527                       # Per bank write bursts
system.mem_ctrls0.perBankRdBursts::13           10609                       # Per bank write bursts
system.mem_ctrls0.perBankRdBursts::14           10067                       # Per bank write bursts
system.mem_ctrls0.perBankRdBursts::15            9868                       # Per bank write bursts
system.mem_ctrls0.perBankWrBursts::0             1025                       # Per bank write bursts
system.mem_ctrls0.perBankWrBursts::1              953                       # Per bank write bursts
system.mem_ctrls0.perBankWrBursts::2              877                       # Per bank write bursts
system.mem_ctrls0.perBankWrBursts::3              942                       # Per bank write bursts
system.mem_ctrls0.perBankWrBursts::4              851                       # Per bank write bursts
system.mem_ctrls0.perBankWrBursts::5              836                       # Per bank write bursts
system.mem_ctrls0.perBankWrBursts::6              963                       # Per bank write bursts
system.mem_ctrls0.perBankWrBursts::7              997                       # Per bank write bursts
system.mem_ctrls0.perBankWrBursts::8             1019                       # Per bank write bursts
system.mem_ctrls0.perBankWrBursts::9             1118                       # Per bank write bursts
system.mem_ctrls0.perBankWrBursts::10            1296                       # Per bank write bursts
system.mem_ctrls0.perBankWrBursts::11            1220                       # Per bank write bursts
system.mem_ctrls0.perBankWrBursts::12            1317                       # Per bank write bursts
system.mem_ctrls0.perBankWrBursts::13            1282                       # Per bank write bursts
system.mem_ctrls0.perBankWrBursts::14            1103                       # Per bank write bursts
system.mem_ctrls0.perBankWrBursts::15            1044                       # Per bank write bursts
system.mem_ctrls0.numRdRetry                        0                       # Number of times read queue was full causing retry
system.mem_ctrls0.numWrRetry                        0                       # Number of times write queue was full causing retry
system.mem_ctrls0.totGap                  16007905000                       # Total gap between requests
system.mem_ctrls0.readPktSize::0                    0                       # Read request sizes (log2)
system.mem_ctrls0.readPktSize::1                    0                       # Read request sizes (log2)
system.mem_ctrls0.readPktSize::2                    0                       # Read request sizes (log2)
system.mem_ctrls0.readPktSize::3                    0                       # Read request sizes (log2)
system.mem_ctrls0.readPktSize::4                    0                       # Read request sizes (log2)
system.mem_ctrls0.readPktSize::5                    0                       # Read request sizes (log2)
system.mem_ctrls0.readPktSize::6               155524                       # Read request sizes (log2)
system.mem_ctrls0.writePktSize::0                   0                       # Write request sizes (log2)
system.mem_ctrls0.writePktSize::1                   0                       # Write request sizes (log2)
system.mem_ctrls0.writePktSize::2                   0                       # Write request sizes (log2)
system.mem_ctrls0.writePktSize::3                   0                       # Write request sizes (log2)
system.mem_ctrls0.writePktSize::4                   0                       # Write request sizes (log2)
system.mem_ctrls0.writePktSize::5                   0                       # Write request sizes (log2)
system.mem_ctrls0.writePktSize::6               16863                       # Write request sizes (log2)
system.mem_ctrls0.rdQLenPdf::0                  77844                       # What read queue length does an incoming req see
system.mem_ctrls0.rdQLenPdf::1                  40742                       # What read queue length does an incoming req see
system.mem_ctrls0.rdQLenPdf::2                  21087                       # What read queue length does an incoming req see
system.mem_ctrls0.rdQLenPdf::3                   9733                       # What read queue length does an incoming req see
system.mem_ctrls0.rdQLenPdf::4                   4030                       # What read queue length does an incoming req see
system.mem_ctrls0.rdQLenPdf::5                   1474                       # What read queue length does an incoming req see
system.mem_ctrls0.rdQLenPdf::6                    438                       # What read queue length does an incoming req see
system.mem_ctrls0.rdQLenPdf::7                    132                       # What read queue length does an incoming req see
system.mem_ctrls0.rdQLenPdf::8                     28                       # What read queue length does an incoming req see
system.mem_ctrls0.rdQLenPdf::9                      6                       # What read queue length does an incoming req see
system.mem_ctrls0.rdQLenPdf::10                     3                       # What read queue length does an incoming req see
system.mem_ctrls0.rdQLenPdf::11                     1                       # What read queue length does an incoming req see
system.mem_ctrls0.rdQLenPdf::12                     0                       # What read queue length does an incoming req see
system.mem_ctrls0.rdQLenPdf::13                     0                       # What read queue length does an incoming req see
system.mem_ctrls0.rdQLenPdf::14                     0                       # What read queue length does an incoming req see
system.mem_ctrls0.rdQLenPdf::15                     0                       # What read queue length does an incoming req see
system.mem_ctrls0.rdQLenPdf::16                     0                       # What read queue length does an incoming req see
system.mem_ctrls0.rdQLenPdf::17                     0                       # What read queue length does an incoming req see
system.mem_ctrls0.rdQLenPdf::18                     0                       # What read queue length does an incoming req see
system.mem_ctrls0.rdQLenPdf::19                     0                       # What read queue length does an incoming req see
system.mem_ctrls0.rdQLenPdf::20                     0                       # What read queue length does an incoming req see
system.mem_ctrls0.rdQLenPdf::21                     0                       # What read queue length does an incoming req see
system.mem_ctrls0.rdQLenPdf::22                     0                       # What read queue length does an incoming req see
system.mem_ctrls0.rdQLenPdf::23                     0                       # What read queue length does an incoming req see
system.mem_ctrls0.rdQLenPdf::24                     0                       # What read queue length does an incoming req see
system.mem_ctrls0.rdQLenPdf::25                     0                       # What read queue length does an incoming req see
system.mem_ctrls0.rdQLenPdf::26                     0                       # What read queue length does an incoming req see
system.mem_ctrls0.rdQLenPdf::27                     0                       # What read queue length does an incoming req see
system.mem_ctrls0.rdQLenPdf::28                     0                       # What read queue length does an incoming req see
system.mem_ctrls0.rdQLenPdf::29                     0                       # What read queue length does an incoming req see
system.mem_ctrls0.rdQLenPdf::30                     0                       # What read queue length does an incoming req see
system.mem_ctrls0.rdQLenPdf::31                     0                       # What read queue length does an incoming req see
system.mem_ctrls0.wrQLenPdf::0                      1                       # What write queue length does an incoming req see
system.mem_ctrls0.wrQLenPdf::1                      1                       # What write queue length does an incoming req see
system.mem_ctrls0.wrQLenPdf::2                      1                       # What write queue length does an incoming req see
system.mem_ctrls0.wrQLenPdf::3                      1                       # What write queue length does an incoming req see
system.mem_ctrls0.wrQLenPdf::4                      1                       # What write queue length does an incoming req see
system.mem_ctrls0.wrQLenPdf::5                      1                       # What write queue length does an incoming req see
system.mem_ctrls0.wrQLenPdf::6                      1                       # What write queue length does an incoming req see
system.mem_ctrls0.wrQLenPdf::7                      1                       # What write queue length does an incoming req see
system.mem_ctrls0.wrQLenPdf::8                      1                       # What write queue length does an incoming req see
system.mem_ctrls0.wrQLenPdf::9                      1                       # What write queue length does an incoming req see
system.mem_ctrls0.wrQLenPdf::10                     1                       # What write queue length does an incoming req see
system.mem_ctrls0.wrQLenPdf::11                     1                       # What write queue length does an incoming req see
system.mem_ctrls0.wrQLenPdf::12                     1                       # What write queue length does an incoming req see
system.mem_ctrls0.wrQLenPdf::13                     1                       # What write queue length does an incoming req see
system.mem_ctrls0.wrQLenPdf::14                     1                       # What write queue length does an incoming req see
system.mem_ctrls0.wrQLenPdf::15                   294                       # What write queue length does an incoming req see
system.mem_ctrls0.wrQLenPdf::16                   338                       # What write queue length does an incoming req see
system.mem_ctrls0.wrQLenPdf::17                   710                       # What write queue length does an incoming req see
system.mem_ctrls0.wrQLenPdf::18                   985                       # What write queue length does an incoming req see
system.mem_ctrls0.wrQLenPdf::19                  1035                       # What write queue length does an incoming req see
system.mem_ctrls0.wrQLenPdf::20                  1051                       # What write queue length does an incoming req see
system.mem_ctrls0.wrQLenPdf::21                  1046                       # What write queue length does an incoming req see
system.mem_ctrls0.wrQLenPdf::22                  1037                       # What write queue length does an incoming req see
system.mem_ctrls0.wrQLenPdf::23                  1036                       # What write queue length does an incoming req see
system.mem_ctrls0.wrQLenPdf::24                  1037                       # What write queue length does an incoming req see
system.mem_ctrls0.wrQLenPdf::25                  1040                       # What write queue length does an incoming req see
system.mem_ctrls0.wrQLenPdf::26                  1039                       # What write queue length does an incoming req see
system.mem_ctrls0.wrQLenPdf::27                  1035                       # What write queue length does an incoming req see
system.mem_ctrls0.wrQLenPdf::28                  1029                       # What write queue length does an incoming req see
system.mem_ctrls0.wrQLenPdf::29                  1029                       # What write queue length does an incoming req see
system.mem_ctrls0.wrQLenPdf::30                  1035                       # What write queue length does an incoming req see
system.mem_ctrls0.wrQLenPdf::31                  1023                       # What write queue length does an incoming req see
system.mem_ctrls0.wrQLenPdf::32                  1029                       # What write queue length does an incoming req see
system.mem_ctrls0.wrQLenPdf::33                    19                       # What write queue length does an incoming req see
system.mem_ctrls0.wrQLenPdf::34                     1                       # What write queue length does an incoming req see
system.mem_ctrls0.wrQLenPdf::35                     0                       # What write queue length does an incoming req see
system.mem_ctrls0.wrQLenPdf::36                     0                       # What write queue length does an incoming req see
system.mem_ctrls0.wrQLenPdf::37                     0                       # What write queue length does an incoming req see
system.mem_ctrls0.wrQLenPdf::38                     0                       # What write queue length does an incoming req see
system.mem_ctrls0.wrQLenPdf::39                     0                       # What write queue length does an incoming req see
system.mem_ctrls0.wrQLenPdf::40                     0                       # What write queue length does an incoming req see
system.mem_ctrls0.wrQLenPdf::41                     0                       # What write queue length does an incoming req see
system.mem_ctrls0.wrQLenPdf::42                     0                       # What write queue length does an incoming req see
system.mem_ctrls0.wrQLenPdf::43                     0                       # What write queue length does an incoming req see
system.mem_ctrls0.wrQLenPdf::44                     0                       # What write queue length does an incoming req see
system.mem_ctrls0.wrQLenPdf::45                     0                       # What write queue length does an incoming req see
system.mem_ctrls0.wrQLenPdf::46                     0                       # What write queue length does an incoming req see
system.mem_ctrls0.wrQLenPdf::47                     0                       # What write queue length does an incoming req see
system.mem_ctrls0.wrQLenPdf::48                     0                       # What write queue length does an incoming req see
system.mem_ctrls0.wrQLenPdf::49                     0                       # What write queue length does an incoming req see
system.mem_ctrls0.wrQLenPdf::50                     0                       # What write queue length does an incoming req see
system.mem_ctrls0.wrQLenPdf::51                     0                       # What write queue length does an incoming req see
system.mem_ctrls0.wrQLenPdf::52                     0                       # What write queue length does an incoming req see
system.mem_ctrls0.wrQLenPdf::53                     0                       # What write queue length does an incoming req see
system.mem_ctrls0.wrQLenPdf::54                     0                       # What write queue length does an incoming req see
system.mem_ctrls0.wrQLenPdf::55                     0                       # What write queue length does an incoming req see
system.mem_ctrls0.wrQLenPdf::56                     0                       # What write queue length does an incoming req see
system.mem_ctrls0.wrQLenPdf::57                     0                       # What write queue length does an incoming req see
system.mem_ctrls0.wrQLenPdf::58                     0                       # What write queue length does an incoming req see
system.mem_ctrls0.wrQLenPdf::59                     0                       # What write queue length does an incoming req see
system.mem_ctrls0.wrQLenPdf::60                     0                       # What write queue length does an incoming req see
system.mem_ctrls0.wrQLenPdf::61                     0                       # What write queue length does an incoming req see
system.mem_ctrls0.wrQLenPdf::62                     0                       # What write queue length does an incoming req see
system.mem_ctrls0.wrQLenPdf::63                     0                       # What write queue length does an incoming req see
system.mem_ctrls0.bytesPerActivate::samples       101704                       # Bytes accessed per row activation
system.mem_ctrls0.bytesPerActivate::mean   108.456541                       # Bytes accessed per row activation
system.mem_ctrls0.bytesPerActivate::gmean    85.691527                       # Bytes accessed per row activation
system.mem_ctrls0.bytesPerActivate::stdev   115.030583                       # Bytes accessed per row activation
system.mem_ctrls0.bytesPerActivate::0-127        74794     73.54%     73.54% # Bytes accessed per row activation
system.mem_ctrls0.bytesPerActivate::128-255        17992     17.69%     91.23% # Bytes accessed per row activation
system.mem_ctrls0.bytesPerActivate::256-383         3857      3.79%     95.02% # Bytes accessed per row activation
system.mem_ctrls0.bytesPerActivate::384-511         2252      2.21%     97.24% # Bytes accessed per row activation
system.mem_ctrls0.bytesPerActivate::512-639         1340      1.32%     98.56% # Bytes accessed per row activation
system.mem_ctrls0.bytesPerActivate::640-767          951      0.94%     99.49% # Bytes accessed per row activation
system.mem_ctrls0.bytesPerActivate::768-895          181      0.18%     99.67% # Bytes accessed per row activation
system.mem_ctrls0.bytesPerActivate::896-1023          154      0.15%     99.82% # Bytes accessed per row activation
system.mem_ctrls0.bytesPerActivate::1024-1151          183      0.18%    100.00% # Bytes accessed per row activation
system.mem_ctrls0.bytesPerActivate::total       101704                       # Bytes accessed per row activation
system.mem_ctrls0.rdPerTurnAround::samples         1012                       # Reads before turning the bus around for writes
system.mem_ctrls0.rdPerTurnAround::mean    153.660079                       # Reads before turning the bus around for writes
system.mem_ctrls0.rdPerTurnAround::gmean    56.313610                       # Reads before turning the bus around for writes
system.mem_ctrls0.rdPerTurnAround::stdev  2007.467407                       # Reads before turning the bus around for writes
system.mem_ctrls0.rdPerTurnAround::0-2047         1011     99.90%     99.90% # Reads before turning the bus around for writes
system.mem_ctrls0.rdPerTurnAround::63488-65535            1      0.10%    100.00% # Reads before turning the bus around for writes
system.mem_ctrls0.rdPerTurnAround::total         1012                       # Reads before turning the bus around for writes
system.mem_ctrls0.wrPerTurnAround::samples         1012                       # Writes before turning the bus around for reads
system.mem_ctrls0.wrPerTurnAround::mean     16.643281                       # Writes before turning the bus around for reads
system.mem_ctrls0.wrPerTurnAround::gmean    16.618397                       # Writes before turning the bus around for reads
system.mem_ctrls0.wrPerTurnAround::stdev     0.923495                       # Writes before turning the bus around for reads
system.mem_ctrls0.wrPerTurnAround::16             671     66.30%     66.30% # Writes before turning the bus around for reads
system.mem_ctrls0.wrPerTurnAround::17              36      3.56%     69.86% # Writes before turning the bus around for reads
system.mem_ctrls0.wrPerTurnAround::18             300     29.64%     99.51% # Writes before turning the bus around for reads
system.mem_ctrls0.wrPerTurnAround::19               5      0.49%    100.00% # Writes before turning the bus around for reads
system.mem_ctrls0.wrPerTurnAround::total         1012                       # Writes before turning the bus around for reads
system.mem_ctrls0.totQLat                  4408206000                       # Total ticks spent queuing
system.mem_ctrls0.totMemAccLat             7324168500                       # Total ticks spent from burst creation until serviced by the DRAM
system.mem_ctrls0.totBusLat                 777590000                       # Total ticks spent in databus transfers
system.mem_ctrls0.avgQLat                    28345.31                       # Average queueing delay per DRAM burst
system.mem_ctrls0.avgBusLat                   5000.00                       # Average bus latency per DRAM burst
system.mem_ctrls0.avgMemAccLat               47095.31                       # Average memory access latency per DRAM burst
system.mem_ctrls0.avgRdBW                      621.72                       # Average DRAM read bandwidth in MiByte/s
system.mem_ctrls0.avgWrBW                       67.33                       # Average achieved write bandwidth in MiByte/s
system.mem_ctrls0.avgRdBWSys                   621.75                       # Average system read bandwidth in MiByte/s
system.mem_ctrls0.avgWrBWSys                    67.41                       # Average system write bandwidth in MiByte/s
system.mem_ctrls0.peakBW                     12800.00                       # Theoretical peak bandwidth in MiByte/s
system.mem_ctrls0.busUtil                        5.38                       # Data bus utilization in percentage
system.mem_ctrls0.busUtilRead                    4.86                       # Data bus utilization in percentage for reads
system.mem_ctrls0.busUtilWrite                   0.53                       # Data bus utilization in percentage for writes
system.mem_ctrls0.avgRdQLen                      1.52                       # Average read queue length when enqueuing
system.mem_ctrls0.avgWrQLen                     13.29                       # Average write queue length when enqueuing
system.mem_ctrls0.readRowHits                   66913                       # Number of row buffer hits during reads
system.mem_ctrls0.writeRowHits                   3740                       # Number of row buffer hits during writes
system.mem_ctrls0.readRowHitRate                43.03                       # Row buffer hit rate for reads
system.mem_ctrls0.writeRowHitRate               22.18                       # Row buffer hit rate for writes
system.mem_ctrls0.avgGap                     92860.28                       # Average gap between requests
system.mem_ctrls0.pageHitRate                   40.99                       # Row buffer hit rate, read and write combined
system.mem_ctrls0_0.actEnergy               339299940                       # Energy for activate commands per rank (pJ)
system.mem_ctrls0_0.preEnergy               180342195                       # Energy for precharge commands per rank (pJ)
system.mem_ctrls0_0.readEnergy              536528160                       # Energy for read commands per rank (pJ)
system.mem_ctrls0_0.writeEnergy              38857680                       # Energy for write commands per rank (pJ)
system.mem_ctrls0_0.refreshEnergy        1250792400.000000                       # Energy for refresh commands per rank (pJ)
system.mem_ctrls0_0.actBackEnergy          1436624010                       # Energy for active background per rank (pJ)
system.mem_ctrls0_0.preBackEnergy            34200480                       # Energy for precharge background per rank (pJ)
system.mem_ctrls0_0.actPowerDownEnergy     5267156820                       # Energy for active power-down per rank (pJ)
system.mem_ctrls0_0.prePowerDownEnergy      313778880                       # Energy for precharge power-down per rank (pJ)
system.mem_ctrls0_0.selfRefreshEnergy       114685035                       # Energy for self refresh per rank (pJ)
system.mem_ctrls0_0.totalEnergy            9512405130                       # Total energy per rank (pJ)
system.mem_ctrls0_0.averagePower           594.190114                       # Core power per rank (mW)
system.mem_ctrls0_0.totalIdleTime         12767381750                       # Total Idle time Per DRAM Rank
system.mem_ctrls0_0.memoryStateTime::IDLE     20593750                       # Time in different power states
system.mem_ctrls0_0.memoryStateTime::REF    529382000                       # Time in different power states
system.mem_ctrls0_0.memoryStateTime::SREF    401249500                       # Time in different power states
system.mem_ctrls0_0.memoryStateTime::PRE_PDN    817451500                       # Time in different power states
system.mem_ctrls0_0.memoryStateTime::ACT   2689933250                       # Time in different power states
system.mem_ctrls0_0.memoryStateTime::ACT_PDN  11550416000                       # Time in different power states
system.mem_ctrls0_1.actEnergy               386895180                       # Energy for activate commands per rank (pJ)
system.mem_ctrls0_1.preEnergy               205624485                       # Energy for precharge commands per rank (pJ)
system.mem_ctrls0_1.readEnergy              573870360                       # Energy for read commands per rank (pJ)
system.mem_ctrls0_1.writeEnergy              49062780                       # Energy for write commands per rank (pJ)
system.mem_ctrls0_1.refreshEnergy        1266158400.000000                       # Energy for refresh commands per rank (pJ)
system.mem_ctrls0_1.actBackEnergy          1529811600                       # Energy for active background per rank (pJ)
system.mem_ctrls0_1.preBackEnergy            34929120                       # Energy for precharge background per rank (pJ)
system.mem_ctrls0_1.actPowerDownEnergy     5277909870                       # Energy for active power-down per rank (pJ)
system.mem_ctrls0_1.prePowerDownEnergy      287642400                       # Energy for precharge power-down per rank (pJ)
system.mem_ctrls0_1.selfRefreshEnergy        78678945                       # Energy for self refresh per rank (pJ)
system.mem_ctrls0_1.totalEnergy            9690761160                       # Total energy per rank (pJ)
system.mem_ctrls0_1.averagePower           605.331081                       # Core power per rank (mW)
system.mem_ctrls0_1.totalIdleTime         12562131500                       # Total Idle time Per DRAM Rank
system.mem_ctrls0_1.memoryStateTime::IDLE     21868500                       # Time in different power states
system.mem_ctrls0_1.memoryStateTime::REF    535894000                       # Time in different power states
system.mem_ctrls0_1.memoryStateTime::SREF    239382250                       # Time in different power states
system.mem_ctrls0_1.memoryStateTime::PRE_PDN    748865750                       # Time in different power states
system.mem_ctrls0_1.memoryStateTime::ACT   2888131250                       # Time in different power states
system.mem_ctrls0_1.memoryStateTime::ACT_PDN  11574884250                       # Time in different power states
system.mem_ctrls1.pwrStateResidencyTicks::UNDEFINED  16009026000                       # Cumulative time (in ticks) in various power states
system.mem_ctrls1.bytes_read::ruby.dir_cntrl1      9929856                       # Number of bytes read from this memory
system.mem_ctrls1.bytes_read::total           9929856                       # Number of bytes read from this memory
system.mem_ctrls1.bytes_written::ruby.dir_cntrl1      1076864                       # Number of bytes written to this memory
system.mem_ctrls1.bytes_written::total        1076864                       # Number of bytes written to this memory
system.mem_ctrls1.num_reads::ruby.dir_cntrl1       155154                       # Number of read requests responded to by this memory
system.mem_ctrls1.num_reads::total             155154                       # Number of read requests responded to by this memory
system.mem_ctrls1.num_writes::ruby.dir_cntrl1        16826                       # Number of write requests responded to by this memory
system.mem_ctrls1.num_writes::total             16826                       # Number of write requests responded to by this memory
system.mem_ctrls1.bw_read::ruby.dir_cntrl1    620266092                       # Total read bandwidth from this memory (bytes/s)
system.mem_ctrls1.bw_read::total            620266092                       # Total read bandwidth from this memory (bytes/s)
system.mem_ctrls1.bw_write::ruby.dir_cntrl1     67266054                       # Write bandwidth from this memory (bytes/s)
system.mem_ctrls1.bw_write::total            67266054                       # Write bandwidth from this memory (bytes/s)
system.mem_ctrls1.bw_total::ruby.dir_cntrl1    687532146                       # Total bandwidth to/from this memory (bytes/s)
system.mem_ctrls1.bw_total::total           687532146                       # Total bandwidth to/from this memory (bytes/s)
system.mem_ctrls1.readReqs                     155154                       # Number of read requests accepted
system.mem_ctrls1.avgNetLat                      0.00                       # Average network latency to DRAM controller
system.mem_ctrls1.writeReqs                     16826                       # Number of write requests accepted
system.mem_ctrls1.readBursts                   155154                       # Number of DRAM read bursts, including those serviced by the write queue
system.mem_ctrls1.writeBursts                   16826                       # Number of DRAM write bursts, including those merged in the write queue
system.mem_ctrls1.bytesReadDRAM               9929344                       # Total number of bytes read from DRAM
system.mem_ctrls1.bytesReadWrQ                    512                       # Total number of bytes read from write queue
system.mem_ctrls1.bytesWritten                1074944                       # Total number of bytes written to DRAM
system.mem_ctrls1.bytesReadSys                9929856                       # Total read bytes from the system interface side
system.mem_ctrls1.bytesWrittenSys             1076864                       # Total written bytes from the system interface side
system.mem_ctrls1.servicedByWrQ                     8                       # Number of DRAM read bursts serviced by the write queue
system.mem_ctrls1.mergedWrBursts                    0                       # Number of DRAM write bursts merged with an existing one
system.mem_ctrls1.neitherReadNorWriteReqs            0                       # Number of requests that are neither read nor write
system.mem_ctrls1.perBankRdBursts::0             9690                       # Per bank write bursts
system.mem_ctrls1.perBankRdBursts::1             9628                       # Per bank write bursts
system.mem_ctrls1.perBankRdBursts::2             9276                       # Per bank write bursts
system.mem_ctrls1.perBankRdBursts::3             9431                       # Per bank write bursts
system.mem_ctrls1.perBankRdBursts::4             9165                       # Per bank write bursts
system.mem_ctrls1.perBankRdBursts::5             9060                       # Per bank write bursts
system.mem_ctrls1.perBankRdBursts::6             9322                       # Per bank write bursts
system.mem_ctrls1.perBankRdBursts::7             9290                       # Per bank write bursts
system.mem_ctrls1.perBankRdBursts::8             9256                       # Per bank write bursts
system.mem_ctrls1.perBankRdBursts::9             9485                       # Per bank write bursts
system.mem_ctrls1.perBankRdBursts::10           10175                       # Per bank write bursts
system.mem_ctrls1.perBankRdBursts::11           10322                       # Per bank write bursts
system.mem_ctrls1.perBankRdBursts::12           10504                       # Per bank write bursts
system.mem_ctrls1.perBankRdBursts::13           10592                       # Per bank write bursts
system.mem_ctrls1.perBankRdBursts::14           10062                       # Per bank write bursts
system.mem_ctrls1.perBankRdBursts::15            9888                       # Per bank write bursts
system.mem_ctrls1.perBankWrBursts::0              991                       # Per bank write bursts
system.mem_ctrls1.perBankWrBursts::1              902                       # Per bank write bursts
system.mem_ctrls1.perBankWrBursts::2              836                       # Per bank write bursts
system.mem_ctrls1.perBankWrBursts::3              955                       # Per bank write bursts
system.mem_ctrls1.perBankWrBursts::4              858                       # Per bank write bursts
system.mem_ctrls1.perBankWrBursts::5              823                       # Per bank write bursts
system.mem_ctrls1.perBankWrBursts::6              964                       # Per bank write bursts
system.mem_ctrls1.perBankWrBursts::7              989                       # Per bank write bursts
system.mem_ctrls1.perBankWrBursts::8              995                       # Per bank write bursts
system.mem_ctrls1.perBankWrBursts::9             1137                       # Per bank write bursts
system.mem_ctrls1.perBankWrBursts::10            1295                       # Per bank write bursts
system.mem_ctrls1.perBankWrBursts::11            1267                       # Per bank write bursts
system.mem_ctrls1.perBankWrBursts::12            1342                       # Per bank write bursts
system.mem_ctrls1.perBankWrBursts::13            1280                       # Per bank write bursts
system.mem_ctrls1.perBankWrBursts::14            1099                       # Per bank write bursts
system.mem_ctrls1.perBankWrBursts::15            1063                       # Per bank write bursts
system.mem_ctrls1.numRdRetry                        0                       # Number of times read queue was full causing retry
system.mem_ctrls1.numWrRetry                        0                       # Number of times write queue was full causing retry
system.mem_ctrls1.totGap                  16008450500                       # Total gap between requests
system.mem_ctrls1.readPktSize::0                    0                       # Read request sizes (log2)
system.mem_ctrls1.readPktSize::1                    0                       # Read request sizes (log2)
system.mem_ctrls1.readPktSize::2                    0                       # Read request sizes (log2)
system.mem_ctrls1.readPktSize::3                    0                       # Read request sizes (log2)
system.mem_ctrls1.readPktSize::4                    0                       # Read request sizes (log2)
system.mem_ctrls1.readPktSize::5                    0                       # Read request sizes (log2)
system.mem_ctrls1.readPktSize::6               155154                       # Read request sizes (log2)
system.mem_ctrls1.writePktSize::0                   0                       # Write request sizes (log2)
system.mem_ctrls1.writePktSize::1                   0                       # Write request sizes (log2)
system.mem_ctrls1.writePktSize::2                   0                       # Write request sizes (log2)
system.mem_ctrls1.writePktSize::3                   0                       # Write request sizes (log2)
system.mem_ctrls1.writePktSize::4                   0                       # Write request sizes (log2)
system.mem_ctrls1.writePktSize::5                   0                       # Write request sizes (log2)
system.mem_ctrls1.writePktSize::6               16826                       # Write request sizes (log2)
system.mem_ctrls1.rdQLenPdf::0                  76591                       # What read queue length does an incoming req see
system.mem_ctrls1.rdQLenPdf::1                  40632                       # What read queue length does an incoming req see
system.mem_ctrls1.rdQLenPdf::2                  21015                       # What read queue length does an incoming req see
system.mem_ctrls1.rdQLenPdf::3                  10187                       # What read queue length does an incoming req see
system.mem_ctrls1.rdQLenPdf::4                   4255                       # What read queue length does an incoming req see
system.mem_ctrls1.rdQLenPdf::5                   1744                       # What read queue length does an incoming req see
system.mem_ctrls1.rdQLenPdf::6                    549                       # What read queue length does an incoming req see
system.mem_ctrls1.rdQLenPdf::7                    130                       # What read queue length does an incoming req see
system.mem_ctrls1.rdQLenPdf::8                     38                       # What read queue length does an incoming req see
system.mem_ctrls1.rdQLenPdf::9                      5                       # What read queue length does an incoming req see
system.mem_ctrls1.rdQLenPdf::10                     0                       # What read queue length does an incoming req see
system.mem_ctrls1.rdQLenPdf::11                     0                       # What read queue length does an incoming req see
system.mem_ctrls1.rdQLenPdf::12                     0                       # What read queue length does an incoming req see
system.mem_ctrls1.rdQLenPdf::13                     0                       # What read queue length does an incoming req see
system.mem_ctrls1.rdQLenPdf::14                     0                       # What read queue length does an incoming req see
system.mem_ctrls1.rdQLenPdf::15                     0                       # What read queue length does an incoming req see
system.mem_ctrls1.rdQLenPdf::16                     0                       # What read queue length does an incoming req see
system.mem_ctrls1.rdQLenPdf::17                     0                       # What read queue length does an incoming req see
system.mem_ctrls1.rdQLenPdf::18                     0                       # What read queue length does an incoming req see
system.mem_ctrls1.rdQLenPdf::19                     0                       # What read queue length does an incoming req see
system.mem_ctrls1.rdQLenPdf::20                     0                       # What read queue length does an incoming req see
system.mem_ctrls1.rdQLenPdf::21                     0                       # What read queue length does an incoming req see
system.mem_ctrls1.rdQLenPdf::22                     0                       # What read queue length does an incoming req see
system.mem_ctrls1.rdQLenPdf::23                     0                       # What read queue length does an incoming req see
system.mem_ctrls1.rdQLenPdf::24                     0                       # What read queue length does an incoming req see
system.mem_ctrls1.rdQLenPdf::25                     0                       # What read queue length does an incoming req see
system.mem_ctrls1.rdQLenPdf::26                     0                       # What read queue length does an incoming req see
system.mem_ctrls1.rdQLenPdf::27                     0                       # What read queue length does an incoming req see
system.mem_ctrls1.rdQLenPdf::28                     0                       # What read queue length does an incoming req see
system.mem_ctrls1.rdQLenPdf::29                     0                       # What read queue length does an incoming req see
system.mem_ctrls1.rdQLenPdf::30                     0                       # What read queue length does an incoming req see
system.mem_ctrls1.rdQLenPdf::31                     0                       # What read queue length does an incoming req see
system.mem_ctrls1.wrQLenPdf::0                      1                       # What write queue length does an incoming req see
system.mem_ctrls1.wrQLenPdf::1                      1                       # What write queue length does an incoming req see
system.mem_ctrls1.wrQLenPdf::2                      1                       # What write queue length does an incoming req see
system.mem_ctrls1.wrQLenPdf::3                      1                       # What write queue length does an incoming req see
system.mem_ctrls1.wrQLenPdf::4                      1                       # What write queue length does an incoming req see
system.mem_ctrls1.wrQLenPdf::5                      1                       # What write queue length does an incoming req see
system.mem_ctrls1.wrQLenPdf::6                      1                       # What write queue length does an incoming req see
system.mem_ctrls1.wrQLenPdf::7                      1                       # What write queue length does an incoming req see
system.mem_ctrls1.wrQLenPdf::8                      1                       # What write queue length does an incoming req see
system.mem_ctrls1.wrQLenPdf::9                      1                       # What write queue length does an incoming req see
system.mem_ctrls1.wrQLenPdf::10                     1                       # What write queue length does an incoming req see
system.mem_ctrls1.wrQLenPdf::11                     1                       # What write queue length does an incoming req see
system.mem_ctrls1.wrQLenPdf::12                     1                       # What write queue length does an incoming req see
system.mem_ctrls1.wrQLenPdf::13                     1                       # What write queue length does an incoming req see
system.mem_ctrls1.wrQLenPdf::14                     1                       # What write queue length does an incoming req see
system.mem_ctrls1.wrQLenPdf::15                   291                       # What write queue length does an incoming req see
system.mem_ctrls1.wrQLenPdf::16                   354                       # What write queue length does an incoming req see
system.mem_ctrls1.wrQLenPdf::17                   697                       # What write queue length does an incoming req see
system.mem_ctrls1.wrQLenPdf::18                   975                       # What write queue length does an incoming req see
system.mem_ctrls1.wrQLenPdf::19                  1037                       # What write queue length does an incoming req see
system.mem_ctrls1.wrQLenPdf::20                  1041                       # What write queue length does an incoming req see
system.mem_ctrls1.wrQLenPdf::21                  1037                       # What write queue length does an incoming req see
system.mem_ctrls1.wrQLenPdf::22                  1038                       # What write queue length does an incoming req see
system.mem_ctrls1.wrQLenPdf::23                  1041                       # What write queue length does an incoming req see
system.mem_ctrls1.wrQLenPdf::24                  1035                       # What write queue length does an incoming req see
system.mem_ctrls1.wrQLenPdf::25                  1036                       # What write queue length does an incoming req see
system.mem_ctrls1.wrQLenPdf::26                  1028                       # What write queue length does an incoming req see
system.mem_ctrls1.wrQLenPdf::27                  1037                       # What write queue length does an incoming req see
system.mem_ctrls1.wrQLenPdf::28                  1027                       # What write queue length does an incoming req see
system.mem_ctrls1.wrQLenPdf::29                  1025                       # What write queue length does an incoming req see
system.mem_ctrls1.wrQLenPdf::30                  1029                       # What write queue length does an incoming req see
system.mem_ctrls1.wrQLenPdf::31                  1026                       # What write queue length does an incoming req see
system.mem_ctrls1.wrQLenPdf::32                  1025                       # What write queue length does an incoming req see
system.mem_ctrls1.wrQLenPdf::33                    29                       # What write queue length does an incoming req see
system.mem_ctrls1.wrQLenPdf::34                     3                       # What write queue length does an incoming req see
system.mem_ctrls1.wrQLenPdf::35                     0                       # What write queue length does an incoming req see
system.mem_ctrls1.wrQLenPdf::36                     0                       # What write queue length does an incoming req see
system.mem_ctrls1.wrQLenPdf::37                     0                       # What write queue length does an incoming req see
system.mem_ctrls1.wrQLenPdf::38                     0                       # What write queue length does an incoming req see
system.mem_ctrls1.wrQLenPdf::39                     0                       # What write queue length does an incoming req see
system.mem_ctrls1.wrQLenPdf::40                     0                       # What write queue length does an incoming req see
system.mem_ctrls1.wrQLenPdf::41                     0                       # What write queue length does an incoming req see
system.mem_ctrls1.wrQLenPdf::42                     0                       # What write queue length does an incoming req see
system.mem_ctrls1.wrQLenPdf::43                     0                       # What write queue length does an incoming req see
system.mem_ctrls1.wrQLenPdf::44                     0                       # What write queue length does an incoming req see
system.mem_ctrls1.wrQLenPdf::45                     0                       # What write queue length does an incoming req see
system.mem_ctrls1.wrQLenPdf::46                     0                       # What write queue length does an incoming req see
system.mem_ctrls1.wrQLenPdf::47                     0                       # What write queue length does an incoming req see
system.mem_ctrls1.wrQLenPdf::48                     0                       # What write queue length does an incoming req see
system.mem_ctrls1.wrQLenPdf::49                     0                       # What write queue length does an incoming req see
system.mem_ctrls1.wrQLenPdf::50                     0                       # What write queue length does an incoming req see
system.mem_ctrls1.wrQLenPdf::51                     0                       # What write queue length does an incoming req see
system.mem_ctrls1.wrQLenPdf::52                     0                       # What write queue length does an incoming req see
system.mem_ctrls1.wrQLenPdf::53                     0                       # What write queue length does an incoming req see
system.mem_ctrls1.wrQLenPdf::54                     0                       # What write queue length does an incoming req see
system.mem_ctrls1.wrQLenPdf::55                     0                       # What write queue length does an incoming req see
system.mem_ctrls1.wrQLenPdf::56                     0                       # What write queue length does an incoming req see
system.mem_ctrls1.wrQLenPdf::57                     0                       # What write queue length does an incoming req see
system.mem_ctrls1.wrQLenPdf::58                     0                       # What write queue length does an incoming req see
system.mem_ctrls1.wrQLenPdf::59                     0                       # What write queue length does an incoming req see
system.mem_ctrls1.wrQLenPdf::60                     0                       # What write queue length does an incoming req see
system.mem_ctrls1.wrQLenPdf::61                     0                       # What write queue length does an incoming req see
system.mem_ctrls1.wrQLenPdf::62                     0                       # What write queue length does an incoming req see
system.mem_ctrls1.wrQLenPdf::63                     0                       # What write queue length does an incoming req see
system.mem_ctrls1.bytesPerActivate::samples       101266                       # Bytes accessed per row activation
system.mem_ctrls1.bytesPerActivate::mean   108.662098                       # Bytes accessed per row activation
system.mem_ctrls1.bytesPerActivate::gmean    85.806766                       # Bytes accessed per row activation
system.mem_ctrls1.bytesPerActivate::stdev   115.207385                       # Bytes accessed per row activation
system.mem_ctrls1.bytesPerActivate::0-127        74364     73.43%     73.43% # Bytes accessed per row activation
system.mem_ctrls1.bytesPerActivate::128-255        17949     17.72%     91.16% # Bytes accessed per row activation
system.mem_ctrls1.bytesPerActivate::256-383         3867      3.82%     94.98% # Bytes accessed per row activation
system.mem_ctrls1.bytesPerActivate::384-511         2272      2.24%     97.22% # Bytes accessed per row activation
system.mem_ctrls1.bytesPerActivate::512-639         1349      1.33%     98.55% # Bytes accessed per row activation
system.mem_ctrls1.bytesPerActivate::640-767          959      0.95%     99.50% # Bytes accessed per row activation
system.mem_ctrls1.bytesPerActivate::768-895          174      0.17%     99.67% # Bytes accessed per row activation
system.mem_ctrls1.bytesPerActivate::896-1023          128      0.13%     99.80% # Bytes accessed per row activation
system.mem_ctrls1.bytesPerActivate::1024-1151          204      0.20%    100.00% # Bytes accessed per row activation
system.mem_ctrls1.bytesPerActivate::total       101266                       # Bytes accessed per row activation
system.mem_ctrls1.rdPerTurnAround::samples         1008                       # Reads before turning the bus around for writes
system.mem_ctrls1.rdPerTurnAround::mean    153.889881                       # Reads before turning the bus around for writes
system.mem_ctrls1.rdPerTurnAround::gmean    55.897314                       # Reads before turning the bus around for writes
system.mem_ctrls1.rdPerTurnAround::stdev  1978.646411                       # Reads before turning the bus around for writes
system.mem_ctrls1.rdPerTurnAround::0-2047         1007     99.90%     99.90% # Reads before turning the bus around for writes
system.mem_ctrls1.rdPerTurnAround::61440-63487            1      0.10%    100.00% # Reads before turning the bus around for writes
system.mem_ctrls1.rdPerTurnAround::total         1008                       # Reads before turning the bus around for writes
system.mem_ctrls1.wrPerTurnAround::samples         1008                       # Writes before turning the bus around for reads
system.mem_ctrls1.wrPerTurnAround::mean     16.662698                       # Writes before turning the bus around for reads
system.mem_ctrls1.wrPerTurnAround::gmean    16.637506                       # Writes before turning the bus around for reads
system.mem_ctrls1.wrPerTurnAround::stdev     0.929126                       # Writes before turning the bus around for reads
system.mem_ctrls1.wrPerTurnAround::16             656     65.08%     65.08% # Writes before turning the bus around for reads
system.mem_ctrls1.wrPerTurnAround::17              42      4.17%     69.25% # Writes before turning the bus around for reads
system.mem_ctrls1.wrPerTurnAround::18             304     30.16%     99.40% # Writes before turning the bus around for reads
system.mem_ctrls1.wrPerTurnAround::19               6      0.60%    100.00% # Writes before turning the bus around for reads
system.mem_ctrls1.wrPerTurnAround::total         1008                       # Writes before turning the bus around for reads
system.mem_ctrls1.totQLat                  4517001750                       # Total ticks spent queuing
system.mem_ctrls1.totMemAccLat             7425989250                       # Total ticks spent from burst creation until serviced by the DRAM
system.mem_ctrls1.totBusLat                 775730000                       # Total ticks spent in databus transfers
system.mem_ctrls1.avgQLat                    29114.52                       # Average queueing delay per DRAM burst
system.mem_ctrls1.avgBusLat                   5000.00                       # Average bus latency per DRAM burst
system.mem_ctrls1.avgMemAccLat               47864.52                       # Average memory access latency per DRAM burst
system.mem_ctrls1.avgRdBW                      620.23                       # Average DRAM read bandwidth in MiByte/s
system.mem_ctrls1.avgWrBW                       67.15                       # Average achieved write bandwidth in MiByte/s
system.mem_ctrls1.avgRdBWSys                   620.27                       # Average system read bandwidth in MiByte/s
system.mem_ctrls1.avgWrBWSys                    67.27                       # Average system write bandwidth in MiByte/s
system.mem_ctrls1.peakBW                     12800.00                       # Theoretical peak bandwidth in MiByte/s
system.mem_ctrls1.busUtil                        5.37                       # Data bus utilization in percentage
system.mem_ctrls1.busUtilRead                    4.85                       # Data bus utilization in percentage for reads
system.mem_ctrls1.busUtilWrite                   0.52                       # Data bus utilization in percentage for writes
system.mem_ctrls1.avgRdQLen                      1.53                       # Average read queue length when enqueuing
system.mem_ctrls1.avgWrQLen                     13.17                       # Average write queue length when enqueuing
system.mem_ctrls1.readRowHits                   66926                       # Number of row buffer hits during reads
system.mem_ctrls1.writeRowHits                   3745                       # Number of row buffer hits during writes
system.mem_ctrls1.readRowHitRate                43.14                       # Row buffer hit rate for reads
system.mem_ctrls1.writeRowHitRate               22.26                       # Row buffer hit rate for writes
system.mem_ctrls1.avgGap                     93083.21                       # Average gap between requests
system.mem_ctrls1.pageHitRate                   41.09                       # Row buffer hit rate, read and write combined
system.mem_ctrls1_0.actEnergy               336122640                       # Energy for activate commands per rank (pJ)
system.mem_ctrls1_0.preEnergy               178649625                       # Energy for precharge commands per rank (pJ)
system.mem_ctrls1_0.readEnergy              534514680                       # Energy for read commands per rank (pJ)
system.mem_ctrls1_0.writeEnergy              38199960                       # Energy for write commands per rank (pJ)
system.mem_ctrls1_0.refreshEnergy        1247719200.000000                       # Energy for refresh commands per rank (pJ)
system.mem_ctrls1_0.actBackEnergy          1430737050                       # Energy for active background per rank (pJ)
system.mem_ctrls1_0.preBackEnergy            33250080                       # Energy for precharge background per rank (pJ)
system.mem_ctrls1_0.actPowerDownEnergy     5285644770                       # Energy for active power-down per rank (pJ)
system.mem_ctrls1_0.prePowerDownEnergy      298054560                       # Energy for precharge power-down per rank (pJ)
system.mem_ctrls1_0.selfRefreshEnergy       116876325                       # Energy for self refresh per rank (pJ)
system.mem_ctrls1_0.totalEnergy            9500162940                       # Total energy per rank (pJ)
system.mem_ctrls1_0.averagePower           593.425408                       # Core power per rank (mW)
system.mem_ctrls1_0.totalIdleTime         12780988000                       # Total Idle time Per DRAM Rank
system.mem_ctrls1_0.memoryStateTime::IDLE     19356000                       # Time in different power states
system.mem_ctrls1_0.memoryStateTime::REF    528094000                       # Time in different power states
system.mem_ctrls1_0.memoryStateTime::SREF    416471500                       # Time in different power states
system.mem_ctrls1_0.memoryStateTime::PRE_PDN    775989500                       # Time in different power states
system.mem_ctrls1_0.memoryStateTime::ACT   2676933000                       # Time in different power states
system.mem_ctrls1_0.memoryStateTime::ACT_PDN  11592182000                       # Time in different power states
system.mem_ctrls1_1.actEnergy               386952300                       # Energy for activate commands per rank (pJ)
system.mem_ctrls1_1.preEnergy               205654845                       # Energy for precharge commands per rank (pJ)
system.mem_ctrls1_1.readEnergy              573227760                       # Energy for read commands per rank (pJ)
system.mem_ctrls1_1.writeEnergy              49475160                       # Energy for write commands per rank (pJ)
system.mem_ctrls1_1.refreshEnergy        1245260640.000000                       # Energy for refresh commands per rank (pJ)
system.mem_ctrls1_1.actBackEnergy          1517725320                       # Energy for active background per rank (pJ)
system.mem_ctrls1_1.preBackEnergy            32326560                       # Energy for precharge background per rank (pJ)
system.mem_ctrls1_1.actPowerDownEnergy     5320554990                       # Energy for active power-down per rank (pJ)
system.mem_ctrls1_1.prePowerDownEnergy      211837920                       # Energy for precharge power-down per rank (pJ)
system.mem_ctrls1_1.selfRefreshEnergy       101571810                       # Energy for self refresh per rank (pJ)
system.mem_ctrls1_1.totalEnergy            9644805915                       # Total energy per rank (pJ)
system.mem_ctrls1_1.averagePower           602.460497                       # Core power per rank (mW)
system.mem_ctrls1_1.totalIdleTime         12595319500                       # Total Idle time Per DRAM Rank
system.mem_ctrls1_1.memoryStateTime::IDLE     16687750                       # Time in different power states
system.mem_ctrls1_1.memoryStateTime::REF    526994000                       # Time in different power states
system.mem_ctrls1_1.memoryStateTime::SREF    376470000                       # Time in different power states
system.mem_ctrls1_1.memoryStateTime::PRE_PDN    551372500                       # Time in different power states
system.mem_ctrls1_1.memoryStateTime::ACT   2869883250                       # Time in different power states
system.mem_ctrls1_1.memoryStateTime::ACT_PDN  11667618500                       # Time in different power states
system.mem_ctrls2.pwrStateResidencyTicks::UNDEFINED  16009026000                       # Cumulative time (in ticks) in various power states
system.mem_ctrls2.bytes_read::ruby.dir_cntrl2      9942208                       # Number of bytes read from this memory
system.mem_ctrls2.bytes_read::total           9942208                       # Number of bytes read from this memory
system.mem_ctrls2.bytes_written::ruby.dir_cntrl2      1078080                       # Number of bytes written to this memory
system.mem_ctrls2.bytes_written::total        1078080                       # Number of bytes written to this memory
system.mem_ctrls2.num_reads::ruby.dir_cntrl2       155347                       # Number of read requests responded to by this memory
system.mem_ctrls2.num_reads::total             155347                       # Number of read requests responded to by this memory
system.mem_ctrls2.num_writes::ruby.dir_cntrl2        16845                       # Number of write requests responded to by this memory
system.mem_ctrls2.num_writes::total             16845                       # Number of write requests responded to by this memory
system.mem_ctrls2.bw_read::ruby.dir_cntrl2    621037657                       # Total read bandwidth from this memory (bytes/s)
system.mem_ctrls2.bw_read::total            621037657                       # Total read bandwidth from this memory (bytes/s)
system.mem_ctrls2.bw_write::ruby.dir_cntrl2     67342011                       # Write bandwidth from this memory (bytes/s)
system.mem_ctrls2.bw_write::total            67342011                       # Write bandwidth from this memory (bytes/s)
system.mem_ctrls2.bw_total::ruby.dir_cntrl2    688379668                       # Total bandwidth to/from this memory (bytes/s)
system.mem_ctrls2.bw_total::total           688379668                       # Total bandwidth to/from this memory (bytes/s)
system.mem_ctrls2.readReqs                     155347                       # Number of read requests accepted
system.mem_ctrls2.avgNetLat                      0.00                       # Average network latency to DRAM controller
system.mem_ctrls2.writeReqs                     16845                       # Number of write requests accepted
system.mem_ctrls2.readBursts                   155347                       # Number of DRAM read bursts, including those serviced by the write queue
system.mem_ctrls2.writeBursts                   16845                       # Number of DRAM write bursts, including those merged in the write queue
system.mem_ctrls2.bytesReadDRAM               9941632                       # Total number of bytes read from DRAM
system.mem_ctrls2.bytesReadWrQ                    576                       # Total number of bytes read from write queue
system.mem_ctrls2.bytesWritten                1077120                       # Total number of bytes written to DRAM
system.mem_ctrls2.bytesReadSys                9942208                       # Total read bytes from the system interface side
system.mem_ctrls2.bytesWrittenSys             1078080                       # Total written bytes from the system interface side
system.mem_ctrls2.servicedByWrQ                     9                       # Number of DRAM read bursts serviced by the write queue
system.mem_ctrls2.mergedWrBursts                    0                       # Number of DRAM write bursts merged with an existing one
system.mem_ctrls2.neitherReadNorWriteReqs            0                       # Number of requests that are neither read nor write
system.mem_ctrls2.perBankRdBursts::0             9742                       # Per bank write bursts
system.mem_ctrls2.perBankRdBursts::1             9608                       # Per bank write bursts
system.mem_ctrls2.perBankRdBursts::2             9278                       # Per bank write bursts
system.mem_ctrls2.perBankRdBursts::3             9392                       # Per bank write bursts
system.mem_ctrls2.perBankRdBursts::4             9187                       # Per bank write bursts
system.mem_ctrls2.perBankRdBursts::5             9038                       # Per bank write bursts
system.mem_ctrls2.perBankRdBursts::6             9345                       # Per bank write bursts
system.mem_ctrls2.perBankRdBursts::7             9324                       # Per bank write bursts
system.mem_ctrls2.perBankRdBursts::8             9264                       # Per bank write bursts
system.mem_ctrls2.perBankRdBursts::9             9453                       # Per bank write bursts
system.mem_ctrls2.perBankRdBursts::10           10186                       # Per bank write bursts
system.mem_ctrls2.perBankRdBursts::11           10297                       # Per bank write bursts
system.mem_ctrls2.perBankRdBursts::12           10531                       # Per bank write bursts
system.mem_ctrls2.perBankRdBursts::13           10671                       # Per bank write bursts
system.mem_ctrls2.perBankRdBursts::14           10142                       # Per bank write bursts
system.mem_ctrls2.perBankRdBursts::15            9880                       # Per bank write bursts
system.mem_ctrls2.perBankWrBursts::0             1002                       # Per bank write bursts
system.mem_ctrls2.perBankWrBursts::1              923                       # Per bank write bursts
system.mem_ctrls2.perBankWrBursts::2              870                       # Per bank write bursts
system.mem_ctrls2.perBankWrBursts::3              940                       # Per bank write bursts
system.mem_ctrls2.perBankWrBursts::4              845                       # Per bank write bursts
system.mem_ctrls2.perBankWrBursts::5              832                       # Per bank write bursts
system.mem_ctrls2.perBankWrBursts::6              970                       # Per bank write bursts
system.mem_ctrls2.perBankWrBursts::7              983                       # Per bank write bursts
system.mem_ctrls2.perBankWrBursts::8              992                       # Per bank write bursts
system.mem_ctrls2.perBankWrBursts::9             1092                       # Per bank write bursts
system.mem_ctrls2.perBankWrBursts::10            1275                       # Per bank write bursts
system.mem_ctrls2.perBankWrBursts::11            1271                       # Per bank write bursts
system.mem_ctrls2.perBankWrBursts::12            1338                       # Per bank write bursts
system.mem_ctrls2.perBankWrBursts::13            1316                       # Per bank write bursts
system.mem_ctrls2.perBankWrBursts::14            1117                       # Per bank write bursts
system.mem_ctrls2.perBankWrBursts::15            1064                       # Per bank write bursts
system.mem_ctrls2.numRdRetry                        0                       # Number of times read queue was full causing retry
system.mem_ctrls2.numWrRetry                        0                       # Number of times write queue was full causing retry
system.mem_ctrls2.totGap                  16008103000                       # Total gap between requests
system.mem_ctrls2.readPktSize::0                    0                       # Read request sizes (log2)
system.mem_ctrls2.readPktSize::1                    0                       # Read request sizes (log2)
system.mem_ctrls2.readPktSize::2                    0                       # Read request sizes (log2)
system.mem_ctrls2.readPktSize::3                    0                       # Read request sizes (log2)
system.mem_ctrls2.readPktSize::4                    0                       # Read request sizes (log2)
system.mem_ctrls2.readPktSize::5                    0                       # Read request sizes (log2)
system.mem_ctrls2.readPktSize::6               155347                       # Read request sizes (log2)
system.mem_ctrls2.writePktSize::0                   0                       # Write request sizes (log2)
system.mem_ctrls2.writePktSize::1                   0                       # Write request sizes (log2)
system.mem_ctrls2.writePktSize::2                   0                       # Write request sizes (log2)
system.mem_ctrls2.writePktSize::3                   0                       # Write request sizes (log2)
system.mem_ctrls2.writePktSize::4                   0                       # Write request sizes (log2)
system.mem_ctrls2.writePktSize::5                   0                       # Write request sizes (log2)
system.mem_ctrls2.writePktSize::6               16845                       # Write request sizes (log2)
system.mem_ctrls2.rdQLenPdf::0                  77018                       # What read queue length does an incoming req see
system.mem_ctrls2.rdQLenPdf::1                  40610                       # What read queue length does an incoming req see
system.mem_ctrls2.rdQLenPdf::2                  20930                       # What read queue length does an incoming req see
system.mem_ctrls2.rdQLenPdf::3                  10121                       # What read queue length does an incoming req see
system.mem_ctrls2.rdQLenPdf::4                   4262                       # What read queue length does an incoming req see
system.mem_ctrls2.rdQLenPdf::5                   1639                       # What read queue length does an incoming req see
system.mem_ctrls2.rdQLenPdf::6                    537                       # What read queue length does an incoming req see
system.mem_ctrls2.rdQLenPdf::7                    162                       # What read queue length does an incoming req see
system.mem_ctrls2.rdQLenPdf::8                     47                       # What read queue length does an incoming req see
system.mem_ctrls2.rdQLenPdf::9                      8                       # What read queue length does an incoming req see
system.mem_ctrls2.rdQLenPdf::10                     3                       # What read queue length does an incoming req see
system.mem_ctrls2.rdQLenPdf::11                     1                       # What read queue length does an incoming req see
system.mem_ctrls2.rdQLenPdf::12                     0                       # What read queue length does an incoming req see
system.mem_ctrls2.rdQLenPdf::13                     0                       # What read queue length does an incoming req see
system.mem_ctrls2.rdQLenPdf::14                     0                       # What read queue length does an incoming req see
system.mem_ctrls2.rdQLenPdf::15                     0                       # What read queue length does an incoming req see
system.mem_ctrls2.rdQLenPdf::16                     0                       # What read queue length does an incoming req see
system.mem_ctrls2.rdQLenPdf::17                     0                       # What read queue length does an incoming req see
system.mem_ctrls2.rdQLenPdf::18                     0                       # What read queue length does an incoming req see
system.mem_ctrls2.rdQLenPdf::19                     0                       # What read queue length does an incoming req see
system.mem_ctrls2.rdQLenPdf::20                     0                       # What read queue length does an incoming req see
system.mem_ctrls2.rdQLenPdf::21                     0                       # What read queue length does an incoming req see
system.mem_ctrls2.rdQLenPdf::22                     0                       # What read queue length does an incoming req see
system.mem_ctrls2.rdQLenPdf::23                     0                       # What read queue length does an incoming req see
system.mem_ctrls2.rdQLenPdf::24                     0                       # What read queue length does an incoming req see
system.mem_ctrls2.rdQLenPdf::25                     0                       # What read queue length does an incoming req see
system.mem_ctrls2.rdQLenPdf::26                     0                       # What read queue length does an incoming req see
system.mem_ctrls2.rdQLenPdf::27                     0                       # What read queue length does an incoming req see
system.mem_ctrls2.rdQLenPdf::28                     0                       # What read queue length does an incoming req see
system.mem_ctrls2.rdQLenPdf::29                     0                       # What read queue length does an incoming req see
system.mem_ctrls2.rdQLenPdf::30                     0                       # What read queue length does an incoming req see
system.mem_ctrls2.rdQLenPdf::31                     0                       # What read queue length does an incoming req see
system.mem_ctrls2.wrQLenPdf::0                      1                       # What write queue length does an incoming req see
system.mem_ctrls2.wrQLenPdf::1                      1                       # What write queue length does an incoming req see
system.mem_ctrls2.wrQLenPdf::2                      1                       # What write queue length does an incoming req see
system.mem_ctrls2.wrQLenPdf::3                      1                       # What write queue length does an incoming req see
system.mem_ctrls2.wrQLenPdf::4                      1                       # What write queue length does an incoming req see
system.mem_ctrls2.wrQLenPdf::5                      1                       # What write queue length does an incoming req see
system.mem_ctrls2.wrQLenPdf::6                      1                       # What write queue length does an incoming req see
system.mem_ctrls2.wrQLenPdf::7                      1                       # What write queue length does an incoming req see
system.mem_ctrls2.wrQLenPdf::8                      1                       # What write queue length does an incoming req see
system.mem_ctrls2.wrQLenPdf::9                      1                       # What write queue length does an incoming req see
system.mem_ctrls2.wrQLenPdf::10                     1                       # What write queue length does an incoming req see
system.mem_ctrls2.wrQLenPdf::11                     1                       # What write queue length does an incoming req see
system.mem_ctrls2.wrQLenPdf::12                     1                       # What write queue length does an incoming req see
system.mem_ctrls2.wrQLenPdf::13                     1                       # What write queue length does an incoming req see
system.mem_ctrls2.wrQLenPdf::14                     1                       # What write queue length does an incoming req see
system.mem_ctrls2.wrQLenPdf::15                   302                       # What write queue length does an incoming req see
system.mem_ctrls2.wrQLenPdf::16                   347                       # What write queue length does an incoming req see
system.mem_ctrls2.wrQLenPdf::17                   722                       # What write queue length does an incoming req see
system.mem_ctrls2.wrQLenPdf::18                   985                       # What write queue length does an incoming req see
system.mem_ctrls2.wrQLenPdf::19                  1041                       # What write queue length does an incoming req see
system.mem_ctrls2.wrQLenPdf::20                  1038                       # What write queue length does an incoming req see
system.mem_ctrls2.wrQLenPdf::21                  1041                       # What write queue length does an incoming req see
system.mem_ctrls2.wrQLenPdf::22                  1035                       # What write queue length does an incoming req see
system.mem_ctrls2.wrQLenPdf::23                  1030                       # What write queue length does an incoming req see
system.mem_ctrls2.wrQLenPdf::24                  1033                       # What write queue length does an incoming req see
[...]
system.ruby.L2Cache_Controller.SS.L2_Replacement_clean |         538      6.02%      6.02% |         594      6.65%     12.67% |         591      6.61%     19.28% |         511      5.72%     25.00% |         553      6.19%     31.19% |         604      6.76%     37.95% |         583      6.52%     44.47% |         559      6.26%     50.73% |         606      6.78%     57.51% |         465      5.20%     62.71% |         498      5.57%     68.29% |         559      6.26%     74.54% |         551      6.17%     80.71% |         553      6.19%     86.90% |         631      7.06%     93.96% |         540      6.04%    100.00%
system.ruby.L2Cache_Controller.SS.L2_Replacement_clean::total         8936                      
system.ruby.L2Cache_Controller.M.L1_GET_INSTR |          14     25.00%     25.00% |           0      0.00%     25.00% |           0      0.00%     25.00% |           0      0.00%     25.00% |           0      0.00%     25.00% |           0      0.00%     25.00% |           0      0.00%     25.00% |           0      0.00%     25.00% |          14     25.00%     50.00% |          14     25.00%     75.00% |           0      0.00%     75.00% |           0      0.00%     75.00% |           0      0.00%     75.00% |           0      0.00%     75.00% |          14     25.00%    100.00% |           0      0.00%    100.00%
system.ruby.L2Cache_Controller.M.L1_GET_INSTR::total           56                      
system.ruby.L2Cache_Controller.M.L1_GETS |       10552      6.18%      6.18% |       10665      6.25%     12.43% |       10537      6.17%     18.60% |       10759      6.30%     24.90% |       10437      6.11%     31.02% |       10254      6.01%     37.03% |       10413      6.10%     43.13% |       10596      6.21%     49.33% |       10603      6.21%     55.54% |       10417      6.10%     61.65% |       10574      6.19%     67.84% |       11220      6.57%     74.41% |       11603      6.80%     81.21% |       11118      6.51%     87.72% |       10893      6.38%     94.10% |       10064      5.90%    100.00%
system.ruby.L2Cache_Controller.M.L1_GETS::total       170705                      
system.ruby.L2Cache_Controller.M.L1_GETX |        1247      6.08%      6.08% |        1316      6.42%     12.51% |        1364      6.66%     19.16% |        1296      6.32%     25.48% |        1261      6.15%     31.64% |        1194      5.83%     37.46% |        1149      5.61%     43.07% |        1321      6.45%     49.51% |        1222      5.96%     55.48% |        1272      6.21%     61.68% |        1247      6.08%     67.77% |        1186      5.79%     73.55% |        1799      8.78%     82.33% |        1121      5.47%     87.80% |        1225      5.98%     93.78% |        1275      6.22%    100.00%
system.ruby.L2Cache_Controller.M.L1_GETX::total        20495                      
system.ruby.L2Cache_Controller.M.L2_Replacement |        4281      6.41%      6.41% |        4210      6.30%     12.71% |        4148      6.21%     18.92% |        4176      6.25%     25.17% |        4046      6.06%     31.23% |        4200      6.29%     37.51% |        4096      6.13%     43.65% |        4163      6.23%     49.88% |        4202      6.29%     56.17% |        4100      6.14%     62.31% |        4163      6.23%     68.54% |        4142      6.20%     74.74% |        4186      6.27%     81.00% |        4179      6.26%     87.26% |        4287      6.42%     93.68% |        4224      6.32%    100.00%
system.ruby.L2Cache_Controller.M.L2_Replacement::total        66803                      
system.ruby.L2Cache_Controller.M.L2_Replacement_clean |        2780      6.23%      6.23% |        2686      6.02%     12.25% |        2658      5.96%     18.21% |        2798      6.27%     24.48% |        2754      6.17%     30.65% |        2748      6.16%     36.81% |        2802      6.28%     43.08% |        2794      6.26%     49.35% |        2883      6.46%     55.81% |        2726      6.11%     61.92% |        2790      6.25%     68.17% |        2839      6.36%     74.53% |        2868      6.43%     80.96% |        2877      6.45%     87.40% |        2802      6.28%     93.68% |        2819      6.32%    100.00%
system.ruby.L2Cache_Controller.M.L2_Replacement_clean::total        44624                      
system.ruby.L2Cache_Controller.MT.L1_GETS |          70      3.99%      3.99% |          70      3.99%      7.98% |          98      5.59%     13.57% |          98      5.59%     19.16% |          98      5.59%     24.74% |         140      7.98%     32.73% |         140      7.98%     40.71% |         140      7.98%     48.69% |         136      7.75%     56.44% |         136      7.75%     64.20% |         130      7.41%     71.61% |         134      7.64%     79.25% |         112      6.39%     85.63% |         112      6.39%     92.02% |          70      3.99%     96.01% |          70      3.99%    100.00%
system.ruby.L2Cache_Controller.MT.L1_GETS::total         1754                      
system.ruby.L2Cache_Controller.MT.L1_GETX |           0      0.00%      0.00% |           0      0.00%      0.00% |           0      0.00%      0.00% |           0      0.00%      0.00% |           0      0.00%      0.00% |           0      0.00%      0.00% |           0      0.00%      0.00% |           0      0.00%      0.00% |           2     16.67%     16.67% |           2     16.67%     33.33% |           5     41.67%     75.00% |           3     25.00%    100.00% |           0      0.00%    100.00% |           0      0.00%    100.00% |           0      0.00%    100.00% |           0      0.00%    100.00%
system.ruby.L2Cache_Controller.MT.L1_GETX::total           12                      
system.ruby.L2Cache_Controller.MT.L1_PUTX |       48434      6.24%      6.24% |       48441      6.24%     12.48% |       48175      6.21%     18.68% |       48640      6.26%     24.95% |       48021      6.19%     31.13% |       47984      6.18%     37.31% |       48145      6.20%     43.51% |       48541      6.25%     49.77% |       48556      6.25%     56.02% |       48140      6.20%     62.22% |       48399      6.23%     68.46% |       48998      6.31%     74.77% |       50184      6.46%     81.23% |       49001      6.31%     87.54% |       48726      6.28%     93.82% |       47993      6.18%    100.00%
system.ruby.L2Cache_Controller.MT.L1_PUTX::total       776378                      
system.ruby.L2Cache_Controller.MT.L2_Replacement |           3      2.80%      2.80% |           6      5.61%      8.41% |          14     13.08%     21.50% |           9      8.41%     29.91% |           8      7.48%     37.38% |           7      6.54%     43.93% |           7      6.54%     50.47% |           9      8.41%     58.88% |           9      8.41%     67.29% |           3      2.80%     70.09% |           7      6.54%     76.64% |           5      4.67%     81.31% |           6      5.61%     86.92% |           3      2.80%     89.72% |          11     10.28%    100.00% |           0      0.00%    100.00%
system.ruby.L2Cache_Controller.MT.L2_Replacement::total          107                      
system.ruby.L2Cache_Controller.MT.L2_Replacement_clean |          34      7.42%      7.42% |          27      5.90%     13.32% |          28      6.11%     19.43% |          23      5.02%     24.45% |          24      5.24%     29.69% |          28      6.11%     35.81% |          27      5.90%     41.70% |          28      6.11%     47.82% |          29      6.33%     54.15% |          30      6.55%     60.70% |          31      6.77%     67.47% |          24      5.24%     72.71% |          31      6.77%     79.48% |          36      7.86%     87.34% |          26      5.68%     93.01% |          32      6.99%    100.00%
system.ruby.L2Cache_Controller.MT.L2_Replacement_clean::total          458                      
system.ruby.L2Cache_Controller.M_I.Mem_Ack |        7638      6.31%      6.31% |        7524      6.22%     12.53% |        7440      6.15%     18.68% |        7521      6.22%     24.90% |        7385      6.11%     31.01% |        7590      6.27%     37.28% |        7517      6.21%     43.50% |        7556      6.25%     49.74% |        7734      6.39%     56.14% |        7325      6.06%     62.19% |        7494      6.20%     68.39% |        7570      6.26%     74.65% |        7646      6.32%     80.97% |        7649      6.32%     87.29% |        7758      6.41%     93.70% |        7617      6.30%    100.00%
system.ruby.L2Cache_Controller.M_I.Mem_Ack::total       120964                      
system.ruby.L2Cache_Controller.MT_I.WB_Data |           0      0.00%      0.00% |           4     10.26%     10.26% |           7     17.95%     28.21% |           5     12.82%     41.03% |           1      2.56%     43.59% |           4     10.26%     53.85% |           3      7.69%     61.54% |           3      7.69%     69.23% |           4     10.26%     79.49% |           0      0.00%     79.49% |           2      5.13%     84.62% |           2      5.13%     89.74% |           1      2.56%     92.31% |           0      0.00%     92.31% |           3      7.69%    100.00% |           0      0.00%    100.00%
system.ruby.L2Cache_Controller.MT_I.WB_Data::total           39                      
system.ruby.L2Cache_Controller.MT_I.Ack_all |           3      4.41%      4.41% |           2      2.94%      7.35% |           7     10.29%     17.65% |           4      5.88%     23.53% |           7     10.29%     33.82% |           3      4.41%     38.24% |           4      5.88%     44.12% |           6      8.82%     52.94% |           5      7.35%     60.29% |           3      4.41%     64.71% |           5      7.35%     72.06% |           3      4.41%     76.47% |           5      7.35%     83.82% |           3      4.41%     88.24% |           8     11.76%    100.00% |           0      0.00%    100.00%
system.ruby.L2Cache_Controller.MT_I.Ack_all::total           68                      
system.ruby.L2Cache_Controller.MCT_I.WB_Data |          32      7.53%      7.53% |          26      6.12%     13.65% |          28      6.59%     20.24% |          22      5.18%     25.41% |          24      5.65%     31.06% |          25      5.88%     36.94% |          24      5.65%     42.59% |          24      5.65%     48.24% |          28      6.59%     54.82% |          28      6.59%     61.41% |          27      6.35%     67.76% |          21      4.94%     72.71% |          27      6.35%     79.06% |          33      7.76%     86.82% |          24      5.65%     92.47% |          32      7.53%    100.00%
system.ruby.L2Cache_Controller.MCT_I.WB_Data::total          425                      
system.ruby.L2Cache_Controller.MCT_I.Ack_all |           2      6.06%      6.06% |           1      3.03%      9.09% |           0      0.00%      9.09% |           1      3.03%     12.12% |           0      0.00%     12.12% |           3      9.09%     21.21% |           3      9.09%     30.30% |           4     12.12%     42.42% |           1      3.03%     45.45% |           2      6.06%     51.52% |           4     12.12%     63.64% |           3      9.09%     72.73% |           4     12.12%     84.85% |           3      9.09%     93.94% |           2      6.06%    100.00% |           0      0.00%    100.00%
system.ruby.L2Cache_Controller.MCT_I.Ack_all::total           33                      
system.ruby.L2Cache_Controller.I_I.Ack_all |         538      6.02%      6.02% |         594      6.65%     12.67% |         591      6.61%     19.28% |         511      5.72%     25.00% |         553      6.19%     31.19% |         604      6.76%     37.95% |         583      6.52%     44.47% |         559      6.26%     50.73% |         606      6.78%     57.51% |         465      5.20%     62.71% |         498      5.57%     68.29% |         559      6.26%     74.54% |         551      6.17%     80.71% |         553      6.19%     86.90% |         631      7.06%     93.96% |         540      6.04%    100.00%
system.ruby.L2Cache_Controller.I_I.Ack_all::total         8936                      
system.ruby.L2Cache_Controller.S_I.Ack   |           2      5.56%      5.56% |           1      2.78%      8.33% |           1      2.78%     11.11% |           4     11.11%     22.22% |           0      0.00%     22.22% |           3      8.33%     30.56% |           2      5.56%     36.11% |           3      8.33%     44.44% |           5     13.89%     58.33% |           1      2.78%     61.11% |           5     13.89%     75.00% |           1      2.78%     77.78% |           4     11.11%     88.89% |           1      2.78%     91.67% |           1      2.78%     94.44% |           2      5.56%    100.00%
system.ruby.L2Cache_Controller.S_I.Ack::total           36                      
system.ruby.L2Cache_Controller.S_I.Ack_all |           2      5.56%      5.56% |           1      2.78%      8.33% |           1      2.78%     11.11% |           4     11.11%     22.22% |           0      0.00%     22.22% |           3      8.33%     30.56% |           2      5.56%     36.11% |           3      8.33%     44.44% |           5     13.89%     58.33% |           1      2.78%     61.11% |           5     13.89%     75.00% |           1      2.78%     77.78% |           4     11.11%     88.89% |           1      2.78%     91.67% |           1      2.78%     94.44% |           2      5.56%    100.00%
system.ruby.L2Cache_Controller.S_I.Ack_all::total           36                      
system.ruby.L2Cache_Controller.ISS.Mem_Data |       29293      6.27%      6.27% |       29015      6.21%     12.48% |       28803      6.17%     18.65% |       29173      6.25%     24.89% |       28913      6.19%     31.08% |       29153      6.24%     37.32% |       29185      6.25%     43.57% |       29241      6.26%     49.83% |       29375      6.29%     56.12% |       29134      6.24%     62.36% |       29227      6.26%     68.61% |       29272      6.27%     74.88% |       29452      6.31%     81.19% |       29395      6.29%     87.48% |       29220      6.26%     93.73% |       29266      6.27%    100.00%
system.ruby.L2Cache_Controller.ISS.Mem_Data::total       467117                      
system.ruby.L2Cache_Controller.IS.Mem_Data |        1361      6.40%      6.40% |        1376      6.47%     12.87% |        1498      7.05%     19.92% |        1294      6.09%     26.01% |        1348      6.34%     32.35% |        1345      6.33%     38.67% |        1284      6.04%     44.71% |        1294      6.09%     50.80% |        1368      6.43%     57.23% |        1164      5.47%     62.71% |        1252      5.89%     68.60% |        1266      5.95%     74.55% |        1239      5.83%     80.38% |        1299      6.11%     86.49% |        1521      7.15%     93.64% |        1352      6.36%    100.00%
system.ruby.L2Cache_Controller.IS.Mem_Data::total        21261                      
system.ruby.L2Cache_Controller.IM.Mem_Data |        8266      6.21%      6.21% |        8369      6.29%     12.50% |        8393      6.31%     18.81% |        8350      6.27%     25.08% |        8346      6.27%     31.36% |        8335      6.26%     37.62% |        8350      6.27%     43.89% |        8332      6.26%     50.16% |        8295      6.23%     56.39% |        8266      6.21%     62.60% |        8302      6.24%     68.84% |        8272      6.22%     75.06% |        8268      6.21%     81.27% |        8303      6.24%     87.51% |        8312      6.25%     93.76% |        8309      6.24%    100.00%
system.ruby.L2Cache_Controller.IM.Mem_Data::total       133068                      
system.ruby.L2Cache_Controller.SS_MB.Exclusive_Unblock |          42      3.94%      3.94% |          42      3.94%      7.88% |          70      6.57%     14.45% |          56      5.25%     19.70% |          56      5.25%     24.95% |          84      7.88%     32.83% |          84      7.88%     40.71% |          84      7.88%     48.59% |          82      7.69%     56.29% |          82      7.69%     63.98% |          79      7.41%     71.39% |          81      7.60%     78.99% |          70      6.57%     85.55% |          70      6.57%     92.12% |          42      3.94%     96.06% |          42      3.94%    100.00%
system.ruby.L2Cache_Controller.SS_MB.Exclusive_Unblock::total         1066                      
system.ruby.L2Cache_Controller.MT_MB.Exclusive_Unblock |       49358      6.24%      6.24% |       49365      6.24%     12.47% |       49097      6.20%     18.68% |       49578      6.26%     24.94% |       48957      6.19%     31.13% |       48936      6.18%     37.31% |       49097      6.20%     43.52% |       49490      6.25%     49.77% |       49497      6.25%     56.02% |       49091      6.20%     62.23% |       49355      6.24%     68.46% |       49953      6.31%     74.78% |       51122      6.46%     81.24% |       49937      6.31%     87.55% |       49650      6.27%     93.82% |       48914      6.18%    100.00%
system.ruby.L2Cache_Controller.MT_MB.Exclusive_Unblock::total       791397                      
system.ruby.L2Cache_Controller.MT_IIB.WB_Data |          70      4.03%      4.03% |          70      4.03%      8.05% |          97      5.58%     13.63% |          95      5.46%     19.09% |          96      5.52%     24.61% |         139      7.99%     32.60% |         139      7.99%     40.60% |         138      7.94%     48.53% |         135      7.76%     56.30% |         136      7.82%     64.12% |         129      7.42%     71.54% |         132      7.59%     79.13% |         111      6.38%     85.51% |         112      6.44%     91.95% |          70      4.03%     95.97% |          70      4.03%    100.00%
system.ruby.L2Cache_Controller.MT_IIB.WB_Data::total         1739                      
system.ruby.L2Cache_Controller.MT_IIB.Unblock |           0      0.00%      0.00% |           0      0.00%      0.00% |           1      6.67%      6.67% |           3     20.00%     26.67% |           2     13.33%     40.00% |           1      6.67%     46.67% |           1      6.67%     53.33% |           2     13.33%     66.67% |           1      6.67%     73.33% |           0      0.00%     73.33% |           1      6.67%     80.00% |           2     13.33%     93.33% |           1      6.67%    100.00% |           0      0.00%    100.00% |           0      0.00%    100.00% |           0      0.00%    100.00%
system.ruby.L2Cache_Controller.MT_IIB.Unblock::total           15                      
system.ruby.L2Cache_Controller.MT_IB.WB_Data |           0      0.00%      0.00% |           0      0.00%      0.00% |           1      6.67%      6.67% |           3     20.00%     26.67% |           2     13.33%     40.00% |           1      6.67%     46.67% |           1      6.67%     53.33% |           2     13.33%     66.67% |           1      6.67%     73.33% |           0      0.00%     73.33% |           1      6.67%     80.00% |           2     13.33%     93.33% |           1      6.67%    100.00% |           0      0.00%    100.00% |           0      0.00%    100.00% |           0      0.00%    100.00%
system.ruby.L2Cache_Controller.MT_IB.WB_Data::total           15                      
system.ruby.L2Cache_Controller.MT_SB.Unblock |          70      4.03%      4.03% |          70      4.03%      8.05% |          97      5.58%     13.63% |          95      5.46%     19.09% |          96      5.52%     24.61% |         139      7.99%     32.60% |         139      7.99%     40.60% |         138      7.94%     48.53% |         135      7.76%     56.30% |         136      7.82%     64.12% |         129      7.42%     71.54% |         132      7.59%     79.13% |         111      6.38%     85.51% |         112      6.44%     91.95% |          70      4.03%     95.97% |          70      4.03%    100.00%
system.ruby.L2Cache_Controller.MT_SB.Unblock::total         1739                      

---------- End Simulation Statistics   ----------
