
---------- Begin Simulation Statistics ----------
sim_seconds                                  0.016071                       # Number of seconds simulated
sim_ticks                                 16070879000                       # Number of ticks simulated
final_tick                                16070879000                       # Number of ticks from beginning of simulation (restored from checkpoints and never reset)
sim_freq                                 1000000000000                       # Frequency of simulated ticks
host_inst_rate                                  52752                       # Simulator instruction rate (inst/s)
host_op_rate                                    91523                       # Simulator op (including micro ops) rate (op/s)
host_tick_rate                               18512551                       # Simulator tick rate (ticks/s)
host_mem_usage                                2041164                       # Number of bytes of host memory used
host_seconds                                   868.11                       # Real time elapsed on the host
sim_insts                                    45794811                       # Number of instructions simulated
sim_ops                                      79451591                       # Number of ops (including micro ops) simulated
system.voltage_domain.voltage                       1                       # Voltage in Volts
system.clk_domain.clock                          1000                       # Clock period in ticks
system.mem_ctrls0.pwrStateResidencyTicks::UNDEFINED  16070879000                       # Cumulative time (in ticks) in various power states
system.mem_ctrls0.bytes_read::ruby.dir_cntrl0      9862336                       # Number of bytes read from this memory
system.mem_ctrls0.bytes_read::total           9862336                       # Number of bytes read from this memory
system.mem_ctrls0.bytes_written::ruby.dir_cntrl0       927808                       # Number of bytes written to this memory
system.mem_ctrls0.bytes_written::total         927808                       # Number of bytes written to this memory
system.mem_ctrls0.num_reads::ruby.dir_cntrl0       154099                       # Number of read requests responded to by this memory
system.mem_ctrls0.num_reads::total             154099                       # Number of read requests responded to by this memory
system.mem_ctrls0.num_writes::ruby.dir_cntrl0        14497                       # Number of write requests responded to by this memory
system.mem_ctrls0.num_writes::total             14497                       # Number of write requests responded to by this memory
system.mem_ctrls0.bw_read::ruby.dir_cntrl0    613677447                       # Total read bandwidth from this memory (bytes/s)
system.mem_ctrls0.bw_read::total            613677447                       # Total read bandwidth from this memory (bytes/s)
system.mem_ctrls0.bw_write::ruby.dir_cntrl0     57732250                       # Write bandwidth from this memory (bytes/s)
system.mem_ctrls0.bw_write::total            57732250                       # Write bandwidth from this memory (bytes/s)
system.mem_ctrls0.bw_total::ruby.dir_cntrl0    671409697                       # Total bandwidth to/from this memory (bytes/s)
system.mem_ctrls0.bw_total::total           671409697                       # Total bandwidth to/from this memory (bytes/s)
system.mem_ctrls0.readReqs                     154099                       # Number of read requests accepted
system.mem_ctrls0.avgNetLat                      0.00                       # Average network latency to DRAM controller
system.mem_ctrls0.writeReqs                     14497                       # Number of write requests accepted
system.mem_ctrls0.readBursts                   154099                       # Number of DRAM read bursts, including those serviced by the write queue
system.mem_ctrls0.writeBursts                   14497                       # Number of DRAM write bursts, including those merged in the write queue
system.mem_ctrls0.bytesReadDRAM               9862016                       # Total number of bytes read from DRAM
system.mem_ctrls0.bytesReadWrQ                    320                       # Total number of bytes read from write queue
system.mem_ctrls0.bytesWritten                 926336                       # Total number of bytes written to DRAM
system.mem_ctrls0.bytesReadSys                9862336                       # Total read bytes from the system interface side
system.mem_ctrls0.bytesWrittenSys              927808                       # Total written bytes from the system interface side
system.mem_ctrls0.servicedByWrQ                     5                       # Number of DRAM read bursts serviced by the write queue
system.mem_ctrls0.mergedWrBursts                    0                       # Number of DRAM write bursts merged with an existing one
system.mem_ctrls0.neitherReadNorWriteReqs            0                       # Number of requests that are neither read nor write
system.mem_ctrls0.perBankRdBursts::0             9647                       # Per bank write bursts
system.mem_ctrls0.perBankRdBursts::1             9485                       # Per bank write bursts
system.mem_ctrls0.perBankRdBursts::2             9677                       # Per bank write bursts
system.mem_ctrls0.perBankRdBursts::3             9343                       # Per bank write bursts
system.mem_ctrls0.perBankRdBursts::4             9066                       # Per bank write bursts
system.mem_ctrls0.perBankRdBursts::5             8982                       # Per bank write bursts
system.mem_ctrls0.perBankRdBursts::6             8893                       # Per bank write bursts
system.mem_ctrls0.perBankRdBursts::7             9112                       # Per bank write bursts
system.mem_ctrls0.perBankRdBursts::8             9337                       # Per bank write bursts
system.mem_ctrls0.perBankRdBursts::9             9701                       # Per bank write bursts
system.mem_ctrls0.perBankRdBursts::10           10243                       # Per bank write bursts
system.mem_ctrls0.perBankRdBursts::11           10223                       # Per bank write bursts
system.mem_ctrls0.perBankRdBursts::12           10425                       # Per bank write bursts
system.mem_ctrls0.perBankRdBursts::13           10421                       # Per bank write bursts
system.mem_ctrls0.perBankRdBursts::14            9942                       # Per bank write bursts
system.mem_ctrls0.perBankRdBursts::15            9597                       # Per bank write bursts
system.mem_ctrls0.perBankWrBursts::0              816                       # Per bank write bursts
system.mem_ctrls0.perBankWrBursts::1              781                       # Per bank write bursts
system.mem_ctrls0.perBankWrBursts::2              937                       # Per bank write bursts
system.mem_ctrls0.perBankWrBursts::3              814                       # Per bank write bursts
system.mem_ctrls0.perBankWrBursts::4              700                       # Per bank write bursts
system.mem_ctrls0.perBankWrBursts::5              746                       # Per bank write bursts
system.mem_ctrls0.perBankWrBursts::6              716                       # Per bank write bursts
system.mem_ctrls0.perBankWrBursts::7              765                       # Per bank write bursts
system.mem_ctrls0.perBankWrBursts::8              917                       # Per bank write bursts
system.mem_ctrls0.perBankWrBursts::9              996                       # Per bank write bursts
system.mem_ctrls0.perBankWrBursts::10            1214                       # Per bank write bursts
system.mem_ctrls0.perBankWrBursts::11            1121                       # Per bank write bursts
system.mem_ctrls0.perBankWrBursts::12            1109                       # Per bank write bursts
system.mem_ctrls0.perBankWrBursts::13            1094                       # Per bank write bursts
system.mem_ctrls0.perBankWrBursts::14             932                       # Per bank write bursts
system.mem_ctrls0.perBankWrBursts::15             816                       # Per bank write bursts
system.mem_ctrls0.numRdRetry                        0                       # Number of times read queue was full causing retry
system.mem_ctrls0.numWrRetry                        0                       # Number of times write queue was full causing retry
system.mem_ctrls0.totGap                  16069749500                       # Total gap between requests
system.mem_ctrls0.readPktSize::0                    0                       # Read request sizes (log2)
system.mem_ctrls0.readPktSize::1                    0                       # Read request sizes (log2)
system.mem_ctrls0.readPktSize::2                    0                       # Read request sizes (log2)
system.mem_ctrls0.readPktSize::3                    0                       # Read request sizes (log2)
system.mem_ctrls0.readPktSize::4                    0                       # Read request sizes (log2)
system.mem_ctrls0.readPktSize::5                    0                       # Read request sizes (log2)
system.mem_ctrls0.readPktSize::6               154099                       # Read request sizes (log2)
system.mem_ctrls0.writePktSize::0                   0                       # Write request sizes (log2)
system.mem_ctrls0.writePktSize::1                   0                       # Write request sizes (log2)
system.mem_ctrls0.writePktSize::2                   0                       # Write request sizes (log2)
system.mem_ctrls0.writePktSize::3                   0                       # Write request sizes (log2)
system.mem_ctrls0.writePktSize::4                   0                       # Write request sizes (log2)
system.mem_ctrls0.writePktSize::5                   0                       # Write request sizes (log2)
system.mem_ctrls0.writePktSize::6               14497                       # Write request sizes (log2)
system.mem_ctrls0.rdQLenPdf::0                  74640                       # What read queue length does an incoming req see
system.mem_ctrls0.rdQLenPdf::1                  41690                       # What read queue length does an incoming req see
system.mem_ctrls0.rdQLenPdf::2                  21961                       # What read queue length does an incoming req see
system.mem_ctrls0.rdQLenPdf::3                   9919                       # What read queue length does an incoming req see
system.mem_ctrls0.rdQLenPdf::4                   3888                       # What read queue length does an incoming req see
system.mem_ctrls0.rdQLenPdf::5                   1363                       # What read queue length does an incoming req see
system.mem_ctrls0.rdQLenPdf::6                    441                       # What read queue length does an incoming req see
system.mem_ctrls0.rdQLenPdf::7                    126                       # What read queue length does an incoming req see
system.mem_ctrls0.rdQLenPdf::8                     50                       # What read queue length does an incoming req see
system.mem_ctrls0.rdQLenPdf::9                     14                       # What read queue length does an incoming req see
system.mem_ctrls0.rdQLenPdf::10                     2                       # What read queue length does an incoming req see
system.mem_ctrls0.rdQLenPdf::11                     0                       # What read queue length does an incoming req see
system.mem_ctrls0.rdQLenPdf::12                     0                       # What read queue length does an incoming req see
system.mem_ctrls0.rdQLenPdf::13                     0                       # What read queue length does an incoming req see
system.mem_ctrls0.rdQLenPdf::14                     0                       # What read queue length does an incoming req see
system.mem_ctrls0.rdQLenPdf::15                     0                       # What read queue length does an incoming req see
system.mem_ctrls0.rdQLenPdf::16                     0                       # What read queue length does an incoming req see
system.mem_ctrls0.rdQLenPdf::17                     0                       # What read queue length does an incoming req see
system.mem_ctrls0.rdQLenPdf::18                     0                       # What read queue length does an incoming req see
system.mem_ctrls0.rdQLenPdf::19                     0                       # What read queue length does an incoming req see
system.mem_ctrls0.rdQLenPdf::20                     0                       # What read queue length does an incoming req see
system.mem_ctrls0.rdQLenPdf::21                     0                       # What read queue length does an incoming req see
system.mem_ctrls0.rdQLenPdf::22                     0                       # What read queue length does an incoming req see
system.mem_ctrls0.rdQLenPdf::23                     0                       # What read queue length does an incoming req see
system.mem_ctrls0.rdQLenPdf::24                     0                       # What read queue length does an incoming req see
system.mem_ctrls0.rdQLenPdf::25                     0                       # What read queue length does an incoming req see
system.mem_ctrls0.rdQLenPdf::26                     0                       # What read queue length does an incoming req see
system.mem_ctrls0.rdQLenPdf::27                     0                       # What read queue length does an incoming req see
system.mem_ctrls0.rdQLenPdf::28                     0                       # What read queue length does an incoming req see
system.mem_ctrls0.rdQLenPdf::29                     0                       # What read queue length does an incoming req see
system.mem_ctrls0.rdQLenPdf::30                     0                       # What read queue length does an incoming req see
system.mem_ctrls0.rdQLenPdf::31                     0                       # What read queue length does an incoming req see
system.mem_ctrls0.wrQLenPdf::0                      1                       # What write queue length does an incoming req see
system.mem_ctrls0.wrQLenPdf::1                      1                       # What write queue length does an incoming req see
system.mem_ctrls0.wrQLenPdf::2                      1                       # What write queue length does an incoming req see
system.mem_ctrls0.wrQLenPdf::3                      1                       # What write queue length does an incoming req see
system.mem_ctrls0.wrQLenPdf::4                      1                       # What write queue length does an incoming req see
system.mem_ctrls0.wrQLenPdf::5                      1                       # What write queue length does an incoming req see
system.mem_ctrls0.wrQLenPdf::6                      1                       # What write queue length does an incoming req see
system.mem_ctrls0.wrQLenPdf::7                      1                       # What write queue length does an incoming req see
system.mem_ctrls0.wrQLenPdf::8                      1                       # What write queue length does an incoming req see
system.mem_ctrls0.wrQLenPdf::9                      1                       # What write queue length does an incoming req see
system.mem_ctrls0.wrQLenPdf::10                     1                       # What write queue length does an incoming req see
system.mem_ctrls0.wrQLenPdf::11                     1                       # What write queue length does an incoming req see
system.mem_ctrls0.wrQLenPdf::12                     1                       # What write queue length does an incoming req see
system.mem_ctrls0.wrQLenPdf::13                     1                       # What write queue length does an incoming req see
system.mem_ctrls0.wrQLenPdf::14                     1                       # What write queue length does an incoming req see
system.mem_ctrls0.wrQLenPdf::15                   282                       # What write queue length does an incoming req see
system.mem_ctrls0.wrQLenPdf::16                   324                       # What write queue length does an incoming req see
system.mem_ctrls0.wrQLenPdf::17                   654                       # What write queue length does an incoming req see
system.mem_ctrls0.wrQLenPdf::18                   846                       # What write queue length does an incoming req see
system.mem_ctrls0.wrQLenPdf::19                   901                       # What write queue length does an incoming req see
system.mem_ctrls0.wrQLenPdf::20                   887                       # What write queue length does an incoming req see
system.mem_ctrls0.wrQLenPdf::21                   886                       # What write queue length does an incoming req see
system.mem_ctrls0.wrQLenPdf::22                   887                       # What write queue length does an incoming req see
system.mem_ctrls0.wrQLenPdf::23                   886                       # What write queue length does an incoming req see
system.mem_ctrls0.wrQLenPdf::24                   891                       # What write queue length does an incoming req see
system.mem_ctrls0.wrQLenPdf::25                   880                       # What write queue length does an incoming req see
system.mem_ctrls0.wrQLenPdf::26                   879                       # What write queue length does an incoming req see
system.mem_ctrls0.wrQLenPdf::27                   878                       # What write queue length does an incoming req see
system.mem_ctrls0.wrQLenPdf::28                   882                       # What write queue length does an incoming req see
system.mem_ctrls0.wrQLenPdf::29                   882                       # What write queue length does an incoming req see
system.mem_ctrls0.wrQLenPdf::30                   878                       # What write queue length does an incoming req see
system.mem_ctrls0.wrQLenPdf::31                   873                       # What write queue length does an incoming req see
system.mem_ctrls0.wrQLenPdf::32                   869                       # What write queue length does an incoming req see
system.mem_ctrls0.wrQLenPdf::33                    15                       # What write queue length does an incoming req see
system.mem_ctrls0.wrQLenPdf::34                     2                       # What write queue length does an incoming req see
system.mem_ctrls0.wrQLenPdf::35                     0                       # What write queue length does an incoming req see
system.mem_ctrls0.wrQLenPdf::36                     0                       # What write queue length does an incoming req see
system.mem_ctrls0.wrQLenPdf::37                     0                       # What write queue length does an incoming req see
system.mem_ctrls0.wrQLenPdf::38                     0                       # What write queue length does an incoming req see
system.mem_ctrls0.wrQLenPdf::39                     0                       # What write queue length does an incoming req see
system.mem_ctrls0.wrQLenPdf::40                     0                       # What write queue length does an incoming req see
system.mem_ctrls0.wrQLenPdf::41                     0                       # What write queue length does an incoming req see
system.mem_ctrls0.wrQLenPdf::42                     0                       # What write queue length does an incoming req see
system.mem_ctrls0.wrQLenPdf::43                     0                       # What write queue length does an incoming req see
system.mem_ctrls0.wrQLenPdf::44                     0                       # What write queue length does an incoming req see
system.mem_ctrls0.wrQLenPdf::45                     0                       # What write queue length does an incoming req see
system.mem_ctrls0.wrQLenPdf::46                     0                       # What write queue length does an incoming req see
system.mem_ctrls0.wrQLenPdf::47                     0                       # What write queue length does an incoming req see
system.mem_ctrls0.wrQLenPdf::48                     0                       # What write queue length does an incoming req see
system.mem_ctrls0.wrQLenPdf::49                     0                       # What write queue length does an incoming req see
system.mem_ctrls0.wrQLenPdf::50                     0                       # What write queue length does an incoming req see
system.mem_ctrls0.wrQLenPdf::51                     0                       # What write queue length does an incoming req see
system.mem_ctrls0.wrQLenPdf::52                     0                       # What write queue length does an incoming req see
system.mem_ctrls0.wrQLenPdf::53                     0                       # What write queue length does an incoming req see
system.mem_ctrls0.wrQLenPdf::54                     0                       # What write queue length does an incoming req see
system.mem_ctrls0.wrQLenPdf::55                     0                       # What write queue length does an incoming req see
system.mem_ctrls0.wrQLenPdf::56                     0                       # What write queue length does an incoming req see
system.mem_ctrls0.wrQLenPdf::57                     0                       # What write queue length does an incoming req see
system.mem_ctrls0.wrQLenPdf::58                     0                       # What write queue length does an incoming req see
system.mem_ctrls0.wrQLenPdf::59                     0                       # What write queue length does an incoming req see
system.mem_ctrls0.wrQLenPdf::60                     0                       # What write queue length does an incoming req see
system.mem_ctrls0.wrQLenPdf::61                     0                       # What write queue length does an incoming req see
system.mem_ctrls0.wrQLenPdf::62                     0                       # What write queue length does an incoming req see
system.mem_ctrls0.wrQLenPdf::63                     0                       # What write queue length does an incoming req see
system.mem_ctrls0.bytesPerActivate::samples       102274                       # Bytes accessed per row activation
system.mem_ctrls0.bytesPerActivate::mean   105.484796                       # Bytes accessed per row activation
system.mem_ctrls0.bytesPerActivate::gmean    83.490615                       # Bytes accessed per row activation
system.mem_ctrls0.bytesPerActivate::stdev   116.257869                       # Bytes accessed per row activation
system.mem_ctrls0.bytesPerActivate::0-127        77724     76.00%     76.00% # Bytes accessed per row activation
system.mem_ctrls0.bytesPerActivate::128-255        16630     16.26%     92.26% # Bytes accessed per row activation
system.mem_ctrls0.bytesPerActivate::256-383         3157      3.09%     95.34% # Bytes accessed per row activation
system.mem_ctrls0.bytesPerActivate::384-511         1876      1.83%     97.18% # Bytes accessed per row activation
system.mem_ctrls0.bytesPerActivate::512-639         1226      1.20%     98.38% # Bytes accessed per row activation
system.mem_ctrls0.bytesPerActivate::640-767         1005      0.98%     99.36% # Bytes accessed per row activation
system.mem_ctrls0.bytesPerActivate::768-895          247      0.24%     99.60% # Bytes accessed per row activation
system.mem_ctrls0.bytesPerActivate::896-1023          199      0.19%     99.79% # Bytes accessed per row activation
system.mem_ctrls0.bytesPerActivate::1024-1151          210      0.21%    100.00% # Bytes accessed per row activation
system.mem_ctrls0.bytesPerActivate::total       102274                       # Bytes accessed per row activation
system.mem_ctrls0.rdPerTurnAround::samples          866                       # Reads before turning the bus around for writes
system.mem_ctrls0.rdPerTurnAround::mean    177.923788                       # Reads before turning the bus around for writes
system.mem_ctrls0.rdPerTurnAround::gmean    63.224311                       # Reads before turning the bus around for writes
system.mem_ctrls0.rdPerTurnAround::stdev  2234.627158                       # Reads before turning the bus around for writes
system.mem_ctrls0.rdPerTurnAround::0-4095          865     99.88%     99.88% # Reads before turning the bus around for writes
system.mem_ctrls0.rdPerTurnAround::65536-69631            1      0.12%    100.00% # Reads before turning the bus around for writes
system.mem_ctrls0.rdPerTurnAround::total          866                       # Reads before turning the bus around for writes
system.mem_ctrls0.wrPerTurnAround::samples          866                       # Writes before turning the bus around for reads
system.mem_ctrls0.wrPerTurnAround::mean     16.713626                       # Writes before turning the bus around for reads
system.mem_ctrls0.wrPerTurnAround::gmean    16.687331                       # Writes before turning the bus around for reads
system.mem_ctrls0.wrPerTurnAround::stdev     0.948975                       # Writes before turning the bus around for reads
system.mem_ctrls0.wrPerTurnAround::16             544     62.82%     62.82% # Writes before turning the bus around for reads
system.mem_ctrls0.wrPerTurnAround::17              30      3.46%     66.28% # Writes before turning the bus around for reads
system.mem_ctrls0.wrPerTurnAround::18             289     33.37%     99.65% # Writes before turning the bus around for reads
system.mem_ctrls0.wrPerTurnAround::19               2      0.23%     99.88% # Writes before turning the bus around for reads
system.mem_ctrls0.wrPerTurnAround::20               1      0.12%    100.00% # Writes before turning the bus around for reads
system.mem_ctrls0.wrPerTurnAround::total          866                       # Writes before turning the bus around for reads
system.mem_ctrls0.totQLat                  4742757000                       # Total ticks spent queuing
system.mem_ctrls0.totMemAccLat             7632019500                       # Total ticks spent from burst creation until serviced by the DRAM
system.mem_ctrls0.totBusLat                 770470000                       # Total ticks spent in databus transfers
system.mem_ctrls0.avgQLat                    30778.34                       # Average queueing delay per DRAM burst
system.mem_ctrls0.avgBusLat                   5000.00                       # Average bus latency per DRAM burst
system.mem_ctrls0.avgMemAccLat               49528.34                       # Average memory access latency per DRAM burst
system.mem_ctrls0.avgRdBW                      613.66                       # Average DRAM read bandwidth in MiByte/s
system.mem_ctrls0.avgWrBW                       57.64                       # Average achieved write bandwidth in MiByte/s
system.mem_ctrls0.avgRdBWSys                   613.68                       # Average system read bandwidth in MiByte/s
system.mem_ctrls0.avgWrBWSys                    57.73                       # Average system write bandwidth in MiByte/s
system.mem_ctrls0.peakBW                     12800.00                       # Theoretical peak bandwidth in MiByte/s
system.mem_ctrls0.busUtil                        5.24                       # Data bus utilization in percentage
system.mem_ctrls0.busUtilRead                    4.79                       # Data bus utilization in percentage for reads
system.mem_ctrls0.busUtilWrite                   0.45                       # Data bus utilization in percentage for writes
system.mem_ctrls0.avgRdQLen                      1.53                       # Average read queue length when enqueuing
system.mem_ctrls0.avgWrQLen                     13.08                       # Average write queue length when enqueuing
system.mem_ctrls0.readRowHits                   63071                       # Number of row buffer hits during reads
system.mem_ctrls0.writeRowHits                   3223                       # Number of row buffer hits during writes
system.mem_ctrls0.readRowHitRate                40.93                       # Row buffer hit rate for reads
system.mem_ctrls0.writeRowHitRate               22.23                       # Row buffer hit rate for writes
system.mem_ctrls0.avgGap                     95315.13                       # Average gap between requests
system.mem_ctrls0.pageHitRate                   39.32                       # Row buffer hit rate, read and write combined
system.mem_ctrls0_0.actEnergy               340378080                       # Energy for activate commands per rank (pJ)
system.mem_ctrls0_0.preEnergy               180915240                       # Energy for precharge commands per rank (pJ)
system.mem_ctrls0_0.readEnergy              529823700                       # Energy for read commands per rank (pJ)
system.mem_ctrls0_0.writeEnergy              32755500                       # Energy for write commands per rank (pJ)
system.mem_ctrls0_0.refreshEnergy        1263699840.000000                       # Energy for refresh commands per rank (pJ)
system.mem_ctrls0_0.actBackEnergy          1464939900                       # Energy for active background per rank (pJ)
system.mem_ctrls0_0.preBackEnergy            35258880                       # Energy for precharge background per rank (pJ)
system.mem_ctrls0_0.actPowerDownEnergy     5218265070                       # Energy for active power-down per rank (pJ)
system.mem_ctrls0_0.prePowerDownEnergy      357211680                       # Energy for precharge power-down per rank (pJ)
system.mem_ctrls0_0.selfRefreshEnergy       119877480                       # Energy for self refresh per rank (pJ)
system.mem_ctrls0_0.totalEnergy            9543633300                       # Total energy per rank (pJ)
system.mem_ctrls0_0.averagePower           593.846342                       # Core power per rank (mW)
system.mem_ctrls0_0.totalIdleTime         12761663500                       # Total Idle time Per DRAM Rank
system.mem_ctrls0_0.memoryStateTime::IDLE     23246000                       # Time in different power states
system.mem_ctrls0_0.memoryStateTime::REF    534950000                       # Time in different power states
system.mem_ctrls0_0.memoryStateTime::SREF    391537000                       # Time in different power states
system.mem_ctrls0_0.memoryStateTime::PRE_PDN    930187750                       # Time in different power states
system.mem_ctrls0_0.memoryStateTime::ACT   2746975750                       # Time in different power states
system.mem_ctrls0_0.memoryStateTime::ACT_PDN  11443982500                       # Time in different power states
system.mem_ctrls0_1.actEnergy               389858280                       # Energy for activate commands per rank (pJ)
system.mem_ctrls0_1.preEnergy               207214590                       # Energy for precharge commands per rank (pJ)
system.mem_ctrls0_1.readEnergy              570407460                       # Energy for read commands per rank (pJ)
system.mem_ctrls0_1.writeEnergy              42798780                       # Energy for write commands per rank (pJ)
system.mem_ctrls0_1.refreshEnergy        1240343520.000000                       # Energy for refresh commands per rank (pJ)
system.mem_ctrls0_1.actBackEnergy          1548658650                       # Energy for active background per rank (pJ)
system.mem_ctrls0_1.preBackEnergy            32029440                       # Energy for precharge background per rank (pJ)
system.mem_ctrls0_1.actPowerDownEnergy     5143334580                       # Energy for active power-down per rank (pJ)
system.mem_ctrls0_1.prePowerDownEnergy      274505280                       # Energy for precharge power-down per rank (pJ)
system.mem_ctrls0_1.selfRefreshEnergy       161636835                       # Energy for self refresh per rank (pJ)
system.mem_ctrls0_1.totalEnergy            9611030685                       # Total energy per rank (pJ)
system.mem_ctrls0_1.averagePower           598.040100                       # Core power per rank (mW)
system.mem_ctrls0_1.totalIdleTime         12590124000                       # Total Idle time Per DRAM Rank
system.mem_ctrls0_1.memoryStateTime::IDLE     19182500                       # Time in different power states
system.mem_ctrls0_1.memoryStateTime::REF    524944000                       # Time in different power states
system.mem_ctrls0_1.memoryStateTime::SREF    596647500                       # Time in different power states
system.mem_ctrls0_1.memoryStateTime::PRE_PDN    715010000                       # Time in different power states
system.mem_ctrls0_1.memoryStateTime::ACT   2936071000                       # Time in different power states
system.mem_ctrls0_1.memoryStateTime::ACT_PDN  11279024000                       # Time in different power states
system.mem_ctrls1.pwrStateResidencyTicks::UNDEFINED  16070879000                       # Cumulative time (in ticks) in various power states
system.mem_ctrls1.bytes_read::ruby.dir_cntrl1      9835648                       # Number of bytes read from this memory
system.mem_ctrls1.bytes_read::total           9835648                       # Number of bytes read from this memory
system.mem_ctrls1.bytes_written::ruby.dir_cntrl1       918912                       # Number of bytes written to this memory
system.mem_ctrls1.bytes_written::total         918912                       # Number of bytes written to this memory
system.mem_ctrls1.num_reads::ruby.dir_cntrl1       153682                       # Number of read requests responded to by this memory
system.mem_ctrls1.num_reads::total             153682                       # Number of read requests responded to by this memory
system.mem_ctrls1.num_writes::ruby.dir_cntrl1        14358                       # Number of write requests responded to by this memory
system.mem_ctrls1.num_writes::total             14358                       # Number of write requests responded to by this memory
system.mem_ctrls1.bw_read::ruby.dir_cntrl1    612016804                       # Total read bandwidth from this memory (bytes/s)
system.mem_ctrls1.bw_read::total            612016804                       # Total read bandwidth from this memory (bytes/s)
system.mem_ctrls1.bw_write::ruby.dir_cntrl1     57178702                       # Write bandwidth from this memory (bytes/s)
system.mem_ctrls1.bw_write::total            57178702                       # Write bandwidth from this memory (bytes/s)
system.mem_ctrls1.bw_total::ruby.dir_cntrl1    669195506                       # Total bandwidth to/from this memory (bytes/s)
system.mem_ctrls1.bw_total::total           669195506                       # Total bandwidth to/from this memory (bytes/s)
system.mem_ctrls1.readReqs                     153682                       # Number of read requests accepted
system.mem_ctrls1.avgNetLat                      0.00                       # Average network latency to DRAM controller
system.mem_ctrls1.writeReqs                     14358                       # Number of write requests accepted
system.mem_ctrls1.readBursts                   153682                       # Number of DRAM read bursts, including those serviced by the write queue
system.mem_ctrls1.writeBursts                   14358                       # Number of DRAM write bursts, including those merged in the write queue
system.mem_ctrls1.bytesReadDRAM               9835200                       # Total number of bytes read from DRAM
system.mem_ctrls1.bytesReadWrQ                    448                       # Total number of bytes read from write queue
system.mem_ctrls1.bytesWritten                 917248                       # Total number of bytes written to DRAM
system.mem_ctrls1.bytesReadSys                9835648                       # Total read bytes from the system interface side
system.mem_ctrls1.bytesWrittenSys              918912                       # Total written bytes from the system interface side
system.mem_ctrls1.servicedByWrQ                     7                       # Number of DRAM read bursts serviced by the write queue
system.mem_ctrls1.mergedWrBursts                    0                       # Number of DRAM write bursts merged with an existing one
system.mem_ctrls1.neitherReadNorWriteReqs            0                       # Number of requests that are neither read nor write
system.mem_ctrls1.perBankRdBursts::0             9553                       # Per bank write bursts
system.mem_ctrls1.perBankRdBursts::1             9434                       # Per bank write bursts
system.mem_ctrls1.perBankRdBursts::2             9632                       # Per bank write bursts
system.mem_ctrls1.perBankRdBursts::3             9341                       # Per bank write bursts
system.mem_ctrls1.perBankRdBursts::4             9035                       # Per bank write bursts
system.mem_ctrls1.perBankRdBursts::5             8969                       # Per bank write bursts
system.mem_ctrls1.perBankRdBursts::6             8886                       # Per bank write bursts
system.mem_ctrls1.perBankRdBursts::7             9097                       # Per bank write bursts
system.mem_ctrls1.perBankRdBursts::8             9288                       # Per bank write bursts
system.mem_ctrls1.perBankRdBursts::9             9684                       # Per bank write bursts
system.mem_ctrls1.perBankRdBursts::10           10253                       # Per bank write bursts
system.mem_ctrls1.perBankRdBursts::11           10201                       # Per bank write bursts
system.mem_ctrls1.perBankRdBursts::12           10421                       # Per bank write bursts
system.mem_ctrls1.perBankRdBursts::13           10396                       # Per bank write bursts
system.mem_ctrls1.perBankRdBursts::14            9925                       # Per bank write bursts
system.mem_ctrls1.perBankRdBursts::15            9560                       # Per bank write bursts
system.mem_ctrls1.perBankWrBursts::0              771                       # Per bank write bursts
system.mem_ctrls1.perBankWrBursts::1              775                       # Per bank write bursts
system.mem_ctrls1.perBankWrBursts::2              896                       # Per bank write bursts
system.mem_ctrls1.perBankWrBursts::3              829                       # Per bank write bursts
system.mem_ctrls1.perBankWrBursts::4              702                       # Per bank write bursts
system.mem_ctrls1.perBankWrBursts::5              762                       # Per bank write bursts
system.mem_ctrls1.perBankWrBursts::6              721                       # Per bank write bursts
system.mem_ctrls1.perBankWrBursts::7              755                       # Per bank write bursts
system.mem_ctrls1.perBankWrBursts::8              922                       # Per bank write bursts
system.mem_ctrls1.perBankWrBursts::9             1008                       # Per bank write bursts
system.mem_ctrls1.perBankWrBursts::10            1211                       # Per bank write bursts
system.mem_ctrls1.perBankWrBursts::11            1064                       # Per bank write bursts
system.mem_ctrls1.perBankWrBursts::12            1100                       # Per bank write bursts
system.mem_ctrls1.perBankWrBursts::13            1081                       # Per bank write bursts
system.mem_ctrls1.perBankWrBursts::14             946                       # Per bank write bursts
system.mem_ctrls1.perBankWrBursts::15             789                       # Per bank write bursts
system.mem_ctrls1.numRdRetry                        0                       # Number of times read queue was full causing retry
system.mem_ctrls1.numWrRetry                        0                       # Number of times write queue was full causing retry
system.mem_ctrls1.totGap                  16070289000                       # Total gap between requests
system.mem_ctrls1.readPktSize::0                    0                       # Read request sizes (log2)
system.mem_ctrls1.readPktSize::1                    0                       # Read request sizes (log2)
system.mem_ctrls1.readPktSize::2                    0                       # Read request sizes (log2)
system.mem_ctrls1.readPktSize::3                    0                       # Read request sizes (log2)
system.mem_ctrls1.readPktSize::4                    0                       # Read request sizes (log2)
system.mem_ctrls1.readPktSize::5                    0                       # Read request sizes (log2)
system.mem_ctrls1.readPktSize::6               153682                       # Read request sizes (log2)
system.mem_ctrls1.writePktSize::0                   0                       # Write request sizes (log2)
system.mem_ctrls1.writePktSize::1                   0                       # Write request sizes (log2)
system.mem_ctrls1.writePktSize::2                   0                       # Write request sizes (log2)
system.mem_ctrls1.writePktSize::3                   0                       # Write request sizes (log2)
system.mem_ctrls1.writePktSize::4                   0                       # Write request sizes (log2)
system.mem_ctrls1.writePktSize::5                   0                       # Write request sizes (log2)
system.mem_ctrls1.writePktSize::6               14358                       # Write request sizes (log2)
system.mem_ctrls1.rdQLenPdf::0                  74673                       # What read queue length does an incoming req see
system.mem_ctrls1.rdQLenPdf::1                  41486                       # What read queue length does an incoming req see
system.mem_ctrls1.rdQLenPdf::2                  22104                       # What read queue length does an incoming req see
system.mem_ctrls1.rdQLenPdf::3                  10040                       # What read queue length does an incoming req see
system.mem_ctrls1.rdQLenPdf::4                   3712                       # What read queue length does an incoming req see
system.mem_ctrls1.rdQLenPdf::5                   1146                       # What read queue length does an incoming req see
system.mem_ctrls1.rdQLenPdf::6                    353                       # What read queue length does an incoming req see
system.mem_ctrls1.rdQLenPdf::7                    116                       # What read queue length does an incoming req see
system.mem_ctrls1.rdQLenPdf::8                     37                       # What read queue length does an incoming req see
system.mem_ctrls1.rdQLenPdf::9                      7                       # What read queue length does an incoming req see
system.mem_ctrls1.rdQLenPdf::10                     1                       # What read queue length does an incoming req see
system.mem_ctrls1.rdQLenPdf::11                     0                       # What read queue length does an incoming req see
system.mem_ctrls1.rdQLenPdf::12                     0                       # What read queue length does an incoming req see
system.mem_ctrls1.rdQLenPdf::13                     0                       # What read queue length does an incoming req see
system.mem_ctrls1.rdQLenPdf::14                     0                       # What read queue length does an incoming req see
system.mem_ctrls1.rdQLenPdf::15                     0                       # What read queue length does an incoming req see
system.mem_ctrls1.rdQLenPdf::16                     0                       # What read queue length does an incoming req see
system.mem_ctrls1.rdQLenPdf::17                     0                       # What read queue length does an incoming req see
system.mem_ctrls1.rdQLenPdf::18                     0                       # What read queue length does an incoming req see
system.mem_ctrls1.rdQLenPdf::19                     0                       # What read queue length does an incoming req see
system.mem_ctrls1.rdQLenPdf::20                     0                       # What read queue length does an incoming req see
system.mem_ctrls1.rdQLenPdf::21                     0                       # What read queue length does an incoming req see
system.mem_ctrls1.rdQLenPdf::22                     0                       # What read queue length does an incoming req see
system.mem_ctrls1.rdQLenPdf::23                     0                       # What read queue length does an incoming req see
system.mem_ctrls1.rdQLenPdf::24                     0                       # What read queue length does an incoming req see
system.mem_ctrls1.rdQLenPdf::25                     0                       # What read queue length does an incoming req see
system.mem_ctrls1.rdQLenPdf::26                     0                       # What read queue length does an incoming req see
system.mem_ctrls1.rdQLenPdf::27                     0                       # What read queue length does an incoming req see
system.mem_ctrls1.rdQLenPdf::28                     0                       # What read queue length does an incoming req see
system.mem_ctrls1.rdQLenPdf::29                     0                       # What read queue length does an incoming req see
system.mem_ctrls1.rdQLenPdf::30                     0                       # What read queue length does an incoming req see
system.mem_ctrls1.rdQLenPdf::31                     0                       # What read queue length does an incoming req see
system.mem_ctrls1.wrQLenPdf::0                      1                       # What write queue length does an incoming req see
system.mem_ctrls1.wrQLenPdf::1                      1                       # What write queue length does an incoming req see
system.mem_ctrls1.wrQLenPdf::2                      1                       # What write queue length does an incoming req see
system.mem_ctrls1.wrQLenPdf::3                      1                       # What write queue length does an incoming req see
system.mem_ctrls1.wrQLenPdf::4                      1                       # What write queue length does an incoming req see
system.mem_ctrls1.wrQLenPdf::5                      1                       # What write queue length does an incoming req see
system.mem_ctrls1.wrQLenPdf::6                      1                       # What write queue length does an incoming req see
system.mem_ctrls1.wrQLenPdf::7                      1                       # What write queue length does an incoming req see
system.mem_ctrls1.wrQLenPdf::8                      1                       # What write queue length does an incoming req see
system.mem_ctrls1.wrQLenPdf::9                      1                       # What write queue length does an incoming req see
system.mem_ctrls1.wrQLenPdf::10                     1                       # What write queue length does an incoming req see
system.mem_ctrls1.wrQLenPdf::11                     1                       # What write queue length does an incoming req see
system.mem_ctrls1.wrQLenPdf::12                     1                       # What write queue length does an incoming req see
system.mem_ctrls1.wrQLenPdf::13                     1                       # What write queue length does an incoming req see
system.mem_ctrls1.wrQLenPdf::14                     1                       # What write queue length does an incoming req see
system.mem_ctrls1.wrQLenPdf::15                   271                       # What write queue length does an incoming req see
system.mem_ctrls1.wrQLenPdf::16                   322                       # What write queue length does an incoming req see
system.mem_ctrls1.wrQLenPdf::17                   652                       # What write queue length does an incoming req see
system.mem_ctrls1.wrQLenPdf::18                   838                       # What write queue length does an incoming req see
system.mem_ctrls1.wrQLenPdf::19                   877                       # What write queue length does an incoming req see
system.mem_ctrls1.wrQLenPdf::20                   872                       # What write queue length does an incoming req see
system.mem_ctrls1.wrQLenPdf::21                   880                       # What write queue length does an incoming req see
system.mem_ctrls1.wrQLenPdf::22                   880                       # What write queue length does an incoming req see
system.mem_ctrls1.wrQLenPdf::23                   876                       # What write queue length does an incoming req see
system.mem_ctrls1.wrQLenPdf::24                   874                       # What write queue length does an incoming req see
system.mem_ctrls1.wrQLenPdf::25                   872                       # What write queue length does an incoming req see
system.mem_ctrls1.wrQLenPdf::26                   868                       # What write queue length does an incoming req see
system.mem_ctrls1.wrQLenPdf::27                   873                       # What write queue length does an incoming req see
system.mem_ctrls1.wrQLenPdf::28                   870                       # What write queue length does an incoming req see
system.mem_ctrls1.wrQLenPdf::29                   878                       # What write queue length does an incoming req see
system.mem_ctrls1.wrQLenPdf::30                   871                       # What write queue length does an incoming req see
system.mem_ctrls1.wrQLenPdf::31                   870                       # What write queue length does an incoming req see
system.mem_ctrls1.wrQLenPdf::32                   869                       # What write queue length does an incoming req see
system.mem_ctrls1.wrQLenPdf::33                    24                       # What write queue length does an incoming req see
system.mem_ctrls1.wrQLenPdf::34                     5                       # What write queue length does an incoming req see
system.mem_ctrls1.wrQLenPdf::35                     1                       # What write queue length does an incoming req see
system.mem_ctrls1.wrQLenPdf::36                     0                       # What write queue length does an incoming req see
system.mem_ctrls1.wrQLenPdf::37                     0                       # What write queue length does an incoming req see
system.mem_ctrls1.wrQLenPdf::38                     0                       # What write queue length does an incoming req see
system.mem_ctrls1.wrQLenPdf::39                     0                       # What write queue length does an incoming req see
system.mem_ctrls1.wrQLenPdf::40                     0                       # What write queue length does an incoming req see
system.mem_ctrls1.wrQLenPdf::41                     0                       # What write queue length does an incoming req see
system.mem_ctrls1.wrQLenPdf::42                     0                       # What write queue length does an incoming req see
system.mem_ctrls1.wrQLenPdf::43                     0                       # What write queue length does an incoming req see
system.mem_ctrls1.wrQLenPdf::44                     0                       # What write queue length does an incoming req see
system.mem_ctrls1.wrQLenPdf::45                     0                       # What write queue length does an incoming req see
system.mem_ctrls1.wrQLenPdf::46                     0                       # What write queue length does an incoming req see
system.mem_ctrls1.wrQLenPdf::47                     0                       # What write queue length does an incoming req see
system.mem_ctrls1.wrQLenPdf::48                     0                       # What write queue length does an incoming req see
system.mem_ctrls1.wrQLenPdf::49                     0                       # What write queue length does an incoming req see
system.mem_ctrls1.wrQLenPdf::50                     0                       # What write queue length does an incoming req see
system.mem_ctrls1.wrQLenPdf::51                     0                       # What write queue length does an incoming req see
system.mem_ctrls1.wrQLenPdf::52                     0                       # What write queue length does an incoming req see
system.mem_ctrls1.wrQLenPdf::53                     0                       # What write queue length does an incoming req see
system.mem_ctrls1.wrQLenPdf::54                     0                       # What write queue length does an incoming req see
system.mem_ctrls1.wrQLenPdf::55                     0                       # What write queue length does an incoming req see
system.mem_ctrls1.wrQLenPdf::56                     0                       # What write queue length does an incoming req see
system.mem_ctrls1.wrQLenPdf::57                     0                       # What write queue length does an incoming req see
system.mem_ctrls1.wrQLenPdf::58                     0                       # What write queue length does an incoming req see
system.mem_ctrls1.wrQLenPdf::59                     0                       # What write queue length does an incoming req see
system.mem_ctrls1.wrQLenPdf::60                     0                       # What write queue length does an incoming req see
system.mem_ctrls1.wrQLenPdf::61                     0                       # What write queue length does an incoming req see
system.mem_ctrls1.wrQLenPdf::62                     0                       # What write queue length does an incoming req see
system.mem_ctrls1.wrQLenPdf::63                     0                       # What write queue length does an incoming req see
system.mem_ctrls1.bytesPerActivate::samples       101639                       # Bytes accessed per row activation
system.mem_ctrls1.bytesPerActivate::mean   105.786794                       # Bytes accessed per row activation
system.mem_ctrls1.bytesPerActivate::gmean    83.644396                       # Bytes accessed per row activation
system.mem_ctrls1.bytesPerActivate::stdev   117.117508                       # Bytes accessed per row activation
system.mem_ctrls1.bytesPerActivate::0-127        77009     75.77%     75.77% # Bytes accessed per row activation
system.mem_ctrls1.bytesPerActivate::128-255        16688     16.42%     92.19% # Bytes accessed per row activation
system.mem_ctrls1.bytesPerActivate::256-383         3155      3.10%     95.29% # Bytes accessed per row activation
system.mem_ctrls1.bytesPerActivate::384-511         1910      1.88%     97.17% # Bytes accessed per row activation
system.mem_ctrls1.bytesPerActivate::512-639         1224      1.20%     98.37% # Bytes accessed per row activation
system.mem_ctrls1.bytesPerActivate::640-767          960      0.94%     99.32% # Bytes accessed per row activation
system.mem_ctrls1.bytesPerActivate::768-895          228      0.22%     99.54% # Bytes accessed per row activation
system.mem_ctrls1.bytesPerActivate::896-1023          228      0.22%     99.77% # Bytes accessed per row activation
system.mem_ctrls1.bytesPerActivate::1024-1151          237      0.23%    100.00% # Bytes accessed per row activation
system.mem_ctrls1.bytesPerActivate::total       101639                       # Bytes accessed per row activation
system.mem_ctrls1.rdPerTurnAround::samples          858                       # Reads before turning the bus around for writes
system.mem_ctrls1.rdPerTurnAround::mean    179.088578                       # Reads before turning the bus around for writes
system.mem_ctrls1.rdPerTurnAround::gmean    63.846807                       # Reads before turning the bus around for writes
system.mem_ctrls1.rdPerTurnAround::stdev  2204.990723                       # Reads before turning the bus around for writes
system.mem_ctrls1.rdPerTurnAround::0-2047          855     99.65%     99.65% # Reads before turning the bus around for writes
system.mem_ctrls1.rdPerTurnAround::2048-4095            2      0.23%     99.88% # Reads before turning the bus around for writes
system.mem_ctrls1.rdPerTurnAround::63488-65535            1      0.12%    100.00% # Reads before turning the bus around for writes
system.mem_ctrls1.rdPerTurnAround::total          858                       # Reads before turning the bus around for writes
system.mem_ctrls1.wrPerTurnAround::samples          858                       # Writes before turning the bus around for reads
system.mem_ctrls1.wrPerTurnAround::mean     16.703963                       # Writes before turning the bus around for reads
system.mem_ctrls1.wrPerTurnAround::gmean    16.678098                       # Writes before turning the bus around for reads
system.mem_ctrls1.wrPerTurnAround::stdev     0.940969                       # Writes before turning the bus around for reads
system.mem_ctrls1.wrPerTurnAround::16             540     62.94%     62.94% # Writes before turning the bus around for reads
system.mem_ctrls1.wrPerTurnAround::17              36      4.20%     67.13% # Writes before turning the bus around for reads
system.mem_ctrls1.wrPerTurnAround::18             278     32.40%     99.53% # Writes before turning the bus around for reads
system.mem_ctrls1.wrPerTurnAround::19               4      0.47%    100.00% # Writes before turning the bus around for reads
system.mem_ctrls1.wrPerTurnAround::total          858                       # Writes before turning the bus around for reads
system.mem_ctrls1.totQLat                  4527269000                       # Total ticks spent queuing
system.mem_ctrls1.totMemAccLat             7408675250                       # Total ticks spent from burst creation until serviced by the DRAM
system.mem_ctrls1.totBusLat                 768375000                       # Total ticks spent in databus transfers
system.mem_ctrls1.avgQLat                    29460.02                       # Average queueing delay per DRAM burst
system.mem_ctrls1.avgBusLat                   5000.00                       # Average bus latency per DRAM burst
system.mem_ctrls1.avgMemAccLat               48210.02                       # Average memory access latency per DRAM burst
system.mem_ctrls1.avgRdBW                      611.99                       # Average DRAM read bandwidth in MiByte/s
system.mem_ctrls1.avgWrBW                       57.08                       # Average achieved write bandwidth in MiByte/s
system.mem_ctrls1.avgRdBWSys                   612.02                       # Average system read bandwidth in MiByte/s
system.mem_ctrls1.avgWrBWSys                    57.18                       # Average system write bandwidth in MiByte/s
system.mem_ctrls1.peakBW                     12800.00                       # Theoretical peak bandwidth in MiByte/s
system.mem_ctrls1.busUtil                        5.23                       # Data bus utilization in percentage
system.mem_ctrls1.busUtilRead                    4.78                       # Data bus utilization in percentage for reads
system.mem_ctrls1.busUtilWrite                   0.45                       # Data bus utilization in percentage for writes
system.mem_ctrls1.avgRdQLen                      1.52                       # Average read queue length when enqueuing
system.mem_ctrls1.avgWrQLen                     13.08                       # Average write queue length when enqueuing
system.mem_ctrls1.readRowHits                   63117                       # Number of row buffer hits during reads
system.mem_ctrls1.writeRowHits                   3248                       # Number of row buffer hits during writes
system.mem_ctrls1.readRowHitRate                41.07                       # Row buffer hit rate for reads
system.mem_ctrls1.writeRowHitRate               22.62                       # Row buffer hit rate for writes
system.mem_ctrls1.avgGap                     95633.71                       # Average gap between requests
system.mem_ctrls1.pageHitRate                   39.50                       # Row buffer hit rate, read and write combined
system.mem_ctrls1_0.actEnergy               337986180                       # Energy for activate commands per rank (pJ)
system.mem_ctrls1_0.preEnergy               179640120                       # Energy for precharge commands per rank (pJ)
system.mem_ctrls1_0.readEnergy              527981580                       # Energy for read commands per rank (pJ)
system.mem_ctrls1_0.writeEnergy              32421420                       # Energy for write commands per rank (pJ)
system.mem_ctrls1_0.refreshEnergy        1260626640.000000                       # Energy for refresh commands per rank (pJ)
system.mem_ctrls1_0.actBackEnergy          1450134150                       # Energy for active background per rank (pJ)
system.mem_ctrls1_0.preBackEnergy            34944960                       # Energy for precharge background per rank (pJ)
system.mem_ctrls1_0.actPowerDownEnergy     5234360160                       # Energy for active power-down per rank (pJ)
system.mem_ctrls1_0.prePowerDownEnergy      346727520                       # Energy for precharge power-down per rank (pJ)
system.mem_ctrls1_0.selfRefreshEnergy       124872405                       # Energy for self refresh per rank (pJ)
system.mem_ctrls1_0.totalEnergy            9530317215                       # Total energy per rank (pJ)
system.mem_ctrls1_0.averagePower           593.017757                       # Core power per rank (mW)
system.mem_ctrls1_0.totalIdleTime         12797820000                       # Total Idle time Per DRAM Rank
system.mem_ctrls1_0.memoryStateTime::IDLE     23782750                       # Time in different power states
system.mem_ctrls1_0.memoryStateTime::REF    533668000                       # Time in different power states
system.mem_ctrls1_0.memoryStateTime::SREF    416579250                       # Time in different power states
system.mem_ctrls1_0.memoryStateTime::PRE_PDN    902735250                       # Time in different power states
system.mem_ctrls1_0.memoryStateTime::ACT   2715456250                       # Time in different power states
system.mem_ctrls1_0.memoryStateTime::ACT_PDN  11478657500                       # Time in different power states
system.mem_ctrls1_1.actEnergy               387737700                       # Energy for activate commands per rank (pJ)
system.mem_ctrls1_1.preEnergy               206079885                       # Energy for precharge commands per rank (pJ)
system.mem_ctrls1_1.readEnergy              569257920                       # Energy for read commands per rank (pJ)
system.mem_ctrls1_1.writeEnergy              42391620                       # Energy for write commands per rank (pJ)
system.mem_ctrls1_1.refreshEnergy        1234197120.000000                       # Energy for refresh commands per rank (pJ)
system.mem_ctrls1_1.actBackEnergy          1531170480                       # Energy for active background per rank (pJ)
system.mem_ctrls1_1.preBackEnergy            32202240                       # Energy for precharge background per rank (pJ)
system.mem_ctrls1_1.actPowerDownEnergy     5177084280                       # Energy for active power-down per rank (pJ)
system.mem_ctrls1_1.prePowerDownEnergy      239462880                       # Energy for precharge power-down per rank (pJ)
system.mem_ctrls1_1.selfRefreshEnergy       173303130                       # Energy for self refresh per rank (pJ)
system.mem_ctrls1_1.totalEnergy            9593283735                       # Total energy per rank (pJ)
system.mem_ctrls1_1.averagePower           596.935715                       # Core power per rank (mW)
system.mem_ctrls1_1.totalIdleTime         12628051250                       # Total Idle time Per DRAM Rank
system.mem_ctrls1_1.memoryStateTime::IDLE     19611250                       # Time in different power states
system.mem_ctrls1_1.memoryStateTime::REF    522302000                       # Time in different power states
system.mem_ctrls1_1.memoryStateTime::SREF    651455250                       # Time in different power states
system.mem_ctrls1_1.memoryStateTime::PRE_PDN    623585250                       # Time in different power states
system.mem_ctrls1_1.memoryStateTime::ACT   2900444250                       # Time in different power states
system.mem_ctrls1_1.memoryStateTime::ACT_PDN  11353481000                       # Time in different power states
system.mem_ctrls2.pwrStateResidencyTicks::UNDEFINED  16070879000                       # Cumulative time (in ticks) in various power states
system.mem_ctrls2.bytes_read::ruby.dir_cntrl2      9849792                       # Number of bytes read from this memory
system.mem_ctrls2.bytes_read::total           9849792                       # Number of bytes read from this memory
system.mem_ctrls2.bytes_written::ruby.dir_cntrl2       925440                       # Number of bytes written to this memory
system.mem_ctrls2.bytes_written::total         925440                       # Number of bytes written to this memory
system.mem_ctrls2.num_reads::ruby.dir_cntrl2       153903                       # Number of read requests responded to by this memory
system.mem_ctrls2.num_reads::total             153903                       # Number of read requests responded to by this memory
system.mem_ctrls2.num_writes::ruby.dir_cntrl2        14460                       # Number of write requests responded to by this memory
system.mem_ctrls2.num_writes::total             14460                       # Number of write requests responded to by this memory
system.mem_ctrls2.bw_read::ruby.dir_cntrl2    612896905                       # Total read bandwidth from this memory (bytes/s)
system.mem_ctrls2.bw_read::total            612896905                       # Total read bandwidth from this memory (bytes/s)
system.mem_ctrls2.bw_write::ruby.dir_cntrl2     57584902                       # Write bandwidth from this memory (bytes/s)
system.mem_ctrls2.bw_write::total            57584902                       # Write bandwidth from this memory (bytes/s)
system.mem_ctrls2.bw_total::ruby.dir_cntrl2    670481807                       # Total bandwidth to/from this memory (bytes/s)
system.mem_ctrls2.bw_total::total           670481807                       # Total bandwidth to/from this memory (bytes/s)
system.mem_ctrls2.readReqs                     153903                       # Number of read requests accepted
system.mem_ctrls2.avgNetLat                      0.00                       # Average network latency to DRAM controller
system.mem_ctrls2.writeReqs                     14460                       # Number of write requests accepted
system.mem_ctrls2.readBursts                   153903                       # Number of DRAM read bursts, including those serviced by the write queue
system.mem_ctrls2.writeBursts                   14460                       # Number of DRAM write bursts, including those merged in the write queue
system.mem_ctrls2.bytesReadDRAM               9849408                       # Total number of bytes read from DRAM
system.mem_ctrls2.bytesReadWrQ                    384                       # Total number of bytes read from write queue
system.mem_ctrls2.bytesWritten                 923776                       # Total number of bytes written to DRAM
system.mem_ctrls2.bytesReadSys                9849792                       # Total read bytes from the system interface side
system.mem_ctrls2.bytesWrittenSys              925440                       # Total written bytes from the system interface side
system.mem_ctrls2.servicedByWrQ                     6                       # Number of DRAM read bursts serviced by the write queue
system.mem_ctrls2.mergedWrBursts                    0                       # Number of DRAM write bursts merged with an existing one
system.mem_ctrls2.neitherReadNorWriteReqs            0                       # Number of requests that are neither read nor write
system.mem_ctrls2.perBankRdBursts::0             9540                       # Per bank write bursts
system.mem_ctrls2.perBankRdBursts::1             9402                       # Per bank write bursts
system.mem_ctrls2.perBankRdBursts::2             9653                       # Per bank write bursts
system.mem_ctrls2.perBankRdBursts::3             9305                       # Per bank write bursts
system.mem_ctrls2.perBankRdBursts::4             9055                       # Per bank write bursts
system.mem_ctrls2.perBankRdBursts::5             8982                       # Per bank write bursts
system.mem_ctrls2.perBankRdBursts::6             8889                       # Per bank write bursts
system.mem_ctrls2.perBankRdBursts::7             9105                       # Per bank write bursts
system.mem_ctrls2.perBankRdBursts::8             9267                       # Per bank write bursts
system.mem_ctrls2.perBankRdBursts::9             9690                       # Per bank write bursts
system.mem_ctrls2.perBankRdBursts::10           10234                       # Per bank write bursts
system.mem_ctrls2.perBankRdBursts::11           10237                       # Per bank write bursts
system.mem_ctrls2.perBankRdBursts::12           10454                       # Per bank write bursts
system.mem_ctrls2.perBankRdBursts::13           10492                       # Per bank write bursts
system.mem_ctrls2.perBankRdBursts::14            9983                       # Per bank write bursts
system.mem_ctrls2.perBankRdBursts::15            9609                       # Per bank write bursts
system.mem_ctrls2.perBankWrBursts::0              763                       # Per bank write bursts
system.mem_ctrls2.perBankWrBursts::1              766                       # Per bank write bursts
system.mem_ctrls2.perBankWrBursts::2              897                       # Per bank write bursts
system.mem_ctrls2.perBankWrBursts::3              809                       # Per bank write bursts
system.mem_ctrls2.perBankWrBursts::4              699                       # Per bank write bursts
system.mem_ctrls2.perBankWrBursts::5              744                       # Per bank write bursts
system.mem_ctrls2.perBankWrBursts::6              737                       # Per bank write bursts
system.mem_ctrls2.perBankWrBursts::7              741                       # Per bank write bursts
system.mem_ctrls2.perBankWrBursts::8              903                       # Per bank write bursts
system.mem_ctrls2.perBankWrBursts::9             1027                       # Per bank write bursts
system.mem_ctrls2.perBankWrBursts::10            1192                       # Per bank write bursts
system.mem_ctrls2.perBankWrBursts::11            1111                       # Per bank write bursts
system.mem_ctrls2.perBankWrBursts::12            1112                       # Per bank write bursts
system.mem_ctrls2.perBankWrBursts::13            1128                       # Per bank write bursts
system.mem_ctrls2.perBankWrBursts::14             961                       # Per bank write bursts
system.mem_ctrls2.perBankWrBursts::15             844                       # Per bank write bursts
system.mem_ctrls2.numRdRetry                        0                       # Number of times read queue was full causing retry
system.mem_ctrls2.numWrRetry                        0                       # Number of times write queue was full causing retry
system.mem_ctrls2.totGap                  16069935500                       # Total gap between requests
system.mem_ctrls2.readPktSize::0                    0                       # Read request sizes (log2)
system.mem_ctrls2.readPktSize::1                    0                       # Read request sizes (log2)
system.mem_ctrls2.readPktSize::2                    0                       # Read request sizes (log2)
system.mem_ctrls2.readPktSize::3                    0                       # Read request sizes (log2)
system.mem_ctrls2.readPktSize::4                    0                       # Read request sizes (log2)
system.mem_ctrls2.readPktSize::5                    0                       # Read request sizes (log2)
system.mem_ctrls2.readPktSize::6               153903                       # Read request sizes (log2)
system.mem_ctrls2.writePktSize::0                   0                       # Write request sizes (log2)
system.mem_ctrls2.writePktSize::1                   0                       # Write request sizes (log2)
system.mem_ctrls2.writePktSize::2                   0                       # Write request sizes (log2)
system.mem_ctrls2.writePktSize::3                   0                       # Write request sizes (log2)
system.mem_ctrls2.writePktSize::4                   0                       # Write request sizes (log2)
system.mem_ctrls2.writePktSize::5                   0                       # Write request sizes (log2)
system.mem_ctrls2.writePktSize::6               14460                       # Write request sizes (log2)
system.mem_ctrls2.rdQLenPdf::0                  74506                       # What read queue length does an incoming req see
system.mem_ctrls2.rdQLenPdf::1                  41454                       # What read queue length does an incoming req see
system.mem_ctrls2.rdQLenPdf::2                  22075                       # What read queue length does an incoming req see
system.mem_ctrls2.rdQLenPdf::3                  10041                       # What read queue length does an incoming req see
system.mem_ctrls2.rdQLenPdf::4                   3894                       # What read queue length does an incoming req see
system.mem_ctrls2.rdQLenPdf::5                   1287                       # What read queue length does an incoming req see
system.mem_ctrls2.rdQLenPdf::6                    458                       # What read queue length does an incoming req see
system.mem_ctrls2.rdQLenPdf::7                    133                       # What read queue length does an incoming req see
system.mem_ctrls2.rdQLenPdf::8                     34                       # What read queue length does an incoming req see
system.mem_ctrls2.rdQLenPdf::9                     11                       # What read queue length does an incoming req see
system.mem_ctrls2.rdQLenPdf::10                     2                       # What read queue length does an incoming req see
system.mem_ctrls2.rdQLenPdf::11                     2                       # What read queue length does an incoming req see
system.mem_ctrls2.rdQLenPdf::12                     0                       # What read queue length does an incoming req see
system.mem_ctrls2.rdQLenPdf::13                     0                       # What read queue length does an incoming req see
system.mem_ctrls2.rdQLenPdf::14                     0                       # What read queue length does an incoming req see
system.mem_ctrls2.rdQLenPdf::15                     0                       # What read queue length does an incoming req see
system.mem_ctrls2.rdQLenPdf::16                     0                       # What read queue length does an incoming req see
system.mem_ctrls2.rdQLenPdf::17                     0                       # What read queue length does an incoming req see
system.mem_ctrls2.rdQLenPdf::18                     0                       # What read queue length does an incoming req see
system.mem_ctrls2.rdQLenPdf::19                     0                       # What read queue length does an incoming req see
system.mem_ctrls2.rdQLenPdf::20                     0                       # What read queue length does an incoming req see
system.mem_ctrls2.rdQLenPdf::21                     0                       # What read queue length does an incoming req see
system.mem_ctrls2.rdQLenPdf::22                     0                       # What read queue length does an incoming req see
system.mem_ctrls2.rdQLenPdf::23                     0                       # What read queue length does an incoming req see
system.mem_ctrls2.rdQLenPdf::24                     0                       # What read queue length does an incoming req see
system.mem_ctrls2.rdQLenPdf::25                     0                       # What read queue length does an incoming req see
system.mem_ctrls2.rdQLenPdf::26                     0                       # What read queue length does an incoming req see
system.mem_ctrls2.rdQLenPdf::27                     0                       # What read queue length does an incoming req see
system.mem_ctrls2.rdQLenPdf::28                     0                       # What read queue length does an incoming req see
system.mem_ctrls2.rdQLenPdf::29                     0                       # What read queue length does an incoming req see
system.mem_ctrls2.rdQLenPdf::30                     0                       # What read queue length does an incoming req see
system.mem_ctrls2.rdQLenPdf::31                     0                       # What read queue length does an incoming req see
system.mem_ctrls2.wrQLenPdf::0                      1                       # What write queue length does an incoming req see
system.mem_ctrls2.wrQLenPdf::1                      1                       # What write queue length does an incoming req see
system.mem_ctrls2.wrQLenPdf::2                      1                       # What write queue length does an incoming req see
system.mem_ctrls2.wrQLenPdf::3                      1                       # What write queue length does an incoming req see
system.mem_ctrls2.wrQLenPdf::4                      1                       # What write queue length does an incoming req see
system.mem_ctrls2.wrQLenPdf::5                      1                       # What write queue length does an incoming req see
system.mem_ctrls2.wrQLenPdf::6                      1                       # What write queue length does an incoming req see
system.mem_ctrls2.wrQLenPdf::7                      1                       # What write queue length does an incoming req see
system.mem_ctrls2.wrQLenPdf::8                      1                       # What write queue length does an incoming req see
system.mem_ctrls2.wrQLenPdf::9                      1                       # What write queue length does an incoming req see
system.mem_ctrls2.wrQLenPdf::10                     1                       # What write queue length does an incoming req see
system.mem_ctrls2.wrQLenPdf::11                     1                       # What write queue length does an incoming req see
system.mem_ctrls2.wrQLenPdf::12                     1                       # What write queue length does an incoming req see
system.mem_ctrls2.wrQLenPdf::13                     1                       # What write queue length does an incoming req see
system.mem_ctrls2.wrQLenPdf::14                     1                       # What write queue length does an incoming req see
system.mem_ctrls2.wrQLenPdf::15                   256                       # What write queue length does an incoming req see
system.mem_ctrls2.wrQLenPdf::16                   295                       # What write queue length does an incoming req see
system.mem_ctrls2.wrQLenPdf::17                   635                       # What write queue length does an incoming req see
system.mem_ctrls2.wrQLenPdf::18                   857                       # What write queue length does an incoming req see
system.mem_ctrls2.wrQLenPdf::19                   889                       # What write queue length does an incoming req see
system.mem_ctrls2.wrQLenPdf::20                   896                       # What write queue length does an incoming req see
system.mem_ctrls2.wrQLenPdf::21                   884                       # What write queue length does an incoming req see
system.mem_ctrls2.wrQLenPdf::22                   886                       # What write queue length does an incoming req see
[...]
system.ruby.L2Cache_Controller.M.L1_GETS |       10484      6.13%      6.13% |       10593      6.20%     12.33% |       10634      6.22%     18.55% |       10799      6.32%     24.86% |       10437      6.10%     30.97% |       10199      5.97%     36.93% |       10361      6.06%     42.99% |       10520      6.15%     49.15% |       10569      6.18%     55.33% |       10335      6.04%     61.37% |       10544      6.17%     67.54% |       11269      6.59%     74.13% |       12128      7.09%     81.22% |       11101      6.49%     87.72% |       10897      6.37%     94.09% |       10105      5.91%    100.00%
system.ruby.L2Cache_Controller.M.L1_GETS::total       170975                      
system.ruby.L2Cache_Controller.M.L1_GETX |        1230      5.88%      5.88% |        1319      6.31%     12.19% |        1347      6.44%     18.63% |        1272      6.08%     24.71% |        1254      6.00%     30.71% |        1182      5.65%     36.36% |        1150      5.50%     41.86% |        1293      6.18%     48.04% |        1204      5.76%     53.80% |        1245      5.95%     59.75% |        1222      5.84%     65.60% |        1181      5.65%     71.24% |        2394     11.45%     82.69% |        1113      5.32%     88.01% |        1225      5.86%     93.87% |        1282      6.13%    100.00%
system.ruby.L2Cache_Controller.M.L1_GETX::total        20913                      
system.ruby.L2Cache_Controller.M.L2_Replacement |        3675      6.42%      6.42% |        3577      6.25%     12.66% |        3524      6.15%     18.82% |        3540      6.18%     25.00% |        3501      6.11%     31.11% |        3552      6.20%     37.31% |        3557      6.21%     43.52% |        3579      6.25%     49.77% |        3637      6.35%     56.12% |        3471      6.06%     62.19% |        3559      6.21%     68.40% |        3540      6.18%     74.58% |        3581      6.25%     80.83% |        3656      6.38%     87.22% |        3718      6.49%     93.71% |        3602      6.29%    100.00%
system.ruby.L2Cache_Controller.M.L2_Replacement::total        57269                      
system.ruby.L2Cache_Controller.M.L2_Replacement_clean |        2739      6.29%      6.29% |        2601      5.97%     12.26% |        2603      5.98%     18.24% |        2717      6.24%     24.48% |        2656      6.10%     30.57% |        2701      6.20%     36.78% |        2708      6.22%     42.99% |        2795      6.42%     49.41% |        2761      6.34%     55.75% |        2706      6.21%     61.97% |        2698      6.19%     68.16% |        2788      6.40%     74.56% |        2800      6.43%     80.99% |        2778      6.38%     87.37% |        2732      6.27%     93.64% |        2769      6.36%    100.00%
system.ruby.L2Cache_Controller.M.L2_Replacement_clean::total        43552                      
system.ruby.L2Cache_Controller.MT.L1_GETS |          70      3.95%      3.95% |          70      3.95%      7.91% |          98      5.54%     13.45% |          98      5.54%     18.98% |          98      5.54%     24.52% |         140      7.91%     32.43% |         140      7.91%     40.34% |         140      7.91%     48.25% |         140      7.91%     56.16% |         140      7.91%     64.07% |         138      7.80%     71.86% |         134      7.57%     79.44% |         112      6.33%     85.76% |         112      6.33%     92.09% |          70      3.95%     96.05% |          70      3.95%    100.00%
system.ruby.L2Cache_Controller.MT.L1_GETS::total         1770                      
system.ruby.L2Cache_Controller.MT.L1_GETX |           0      0.00%      0.00% |           0      0.00%      0.00% |           0      0.00%      0.00% |           0      0.00%      0.00% |           0      0.00%      0.00% |           0      0.00%      0.00% |           0      0.00%      0.00% |           0      0.00%      0.00% |           0      0.00%      0.00% |           0      0.00%      0.00% |           1     25.00%     25.00% |           3     75.00%    100.00% |           0      0.00%    100.00% |           0      0.00%    100.00% |           0      0.00%    100.00% |           0      0.00%    100.00%
system.ruby.L2Cache_Controller.MT.L1_GETX::total            4                      
system.ruby.L2Cache_Controller.MT.L1_PUTX |       47989      6.22%      6.22% |       47996      6.22%     12.44% |       47872      6.21%     18.65% |       48300      6.26%     24.91% |       47670      6.18%     31.09% |       47559      6.17%     37.26% |       47753      6.19%     43.45% |       48106      6.24%     49.69% |       48135      6.24%     55.93% |       47656      6.18%     62.11% |       47964      6.22%     68.33% |       48680      6.31%     74.64% |       50966      6.61%     81.24% |       48633      6.31%     87.55% |       48409      6.28%     93.83% |       47624      6.17%    100.00%
system.ruby.L2Cache_Controller.MT.L1_PUTX::total       771312                      
system.ruby.L2Cache_Controller.MT.L2_Replacement |           2      2.78%      2.78% |           2      2.78%      5.56% |           8     11.11%     16.67% |          11     15.28%     31.94% |           8     11.11%     43.06% |           5      6.94%     50.00% |           5      6.94%     56.94% |           4      5.56%     62.50% |           8     11.11%     73.61% |           2      2.78%     76.39% |           3      4.17%     80.56% |           4      5.56%     86.11% |           5      6.94%     93.06% |           1      1.39%     94.44% |           3      4.17%     98.61% |           1      1.39%    100.00%
system.ruby.L2Cache_Controller.MT.L2_Replacement::total           72                      
system.ruby.L2Cache_Controller.MT.L2_Replacement_clean |          16      4.60%      4.60% |          24      6.90%     11.49% |          12      3.45%     14.94% |          30      8.62%     23.56% |          20      5.75%     29.31% |          25      7.18%     36.49% |          23      6.61%     43.10% |          23      6.61%     49.71% |          21      6.03%     55.75% |          21      6.03%     61.78% |          20      5.75%     67.53% |          19      5.46%     72.99% |          22      6.32%     79.31% |          22      6.32%     85.63% |          25      7.18%     92.82% |          25      7.18%    100.00%
system.ruby.L2Cache_Controller.MT.L2_Replacement_clean::total          348                      
system.ruby.L2Cache_Controller.M_I.L1_GET_INSTR |           0      0.00%      0.00% |           0      0.00%      0.00% |           0      0.00%      0.00% |           0      0.00%      0.00% |           0      0.00%      0.00% |           0      0.00%      0.00% |           1    100.00%    100.00% |           0      0.00%    100.00% |           0      0.00%    100.00% |           0      0.00%    100.00% |           0      0.00%    100.00% |           0      0.00%    100.00% |           0      0.00%    100.00% |           0      0.00%    100.00% |           0      0.00%    100.00% |           0      0.00%    100.00%
system.ruby.L2Cache_Controller.M_I.L1_GET_INSTR::total            1                      
system.ruby.L2Cache_Controller.M_I.Mem_Ack |        6931      6.32%      6.32% |        6786      6.19%     12.51% |        6703      6.11%     18.62% |        6790      6.19%     24.81% |        6712      6.12%     30.94% |        6856      6.25%     37.19% |        6846      6.24%     43.43% |        6923      6.31%     49.74% |        7012      6.39%     56.14% |        6627      6.04%     62.18% |        6762      6.17%     68.35% |        6847      6.24%     74.59% |        6931      6.32%     80.91% |        6988      6.37%     87.29% |        7065      6.44%     93.73% |        6876      6.27%    100.00%
system.ruby.L2Cache_Controller.M_I.Mem_Ack::total       109655                      
system.ruby.L2Cache_Controller.MT_I.WB_Data |           0      0.00%      0.00% |           1      3.70%      3.70% |           6     22.22%     25.93% |           5     18.52%     44.44% |           3     11.11%     55.56% |           2      7.41%     62.96% |           2      7.41%     70.37% |           2      7.41%     77.78% |           2      7.41%     85.19% |           1      3.70%     88.89% |           0      0.00%     88.89% |           0      0.00%     88.89% |           2      7.41%     96.30% |           0      0.00%     96.30% |           0      0.00%     96.30% |           1      3.70%    100.00%
system.ruby.L2Cache_Controller.MT_I.WB_Data::total           27                      
system.ruby.L2Cache_Controller.MT_I.Ack_all |           2      4.44%      4.44% |           1      2.22%      6.67% |           2      4.44%     11.11% |           6     13.33%     24.44% |           5     11.11%     35.56% |           3      6.67%     42.22% |           3      6.67%     48.89% |           2      4.44%     53.33% |           6     13.33%     66.67% |           1      2.22%     68.89% |           3      6.67%     75.56% |           4      8.89%     84.44% |           3      6.67%     91.11% |           1      2.22%     93.33% |           3      6.67%    100.00% |           0      0.00%    100.00%
system.ruby.L2Cache_Controller.MT_I.Ack_all::total           45                      
system.ruby.L2Cache_Controller.MCT_I.WB_Data |          16      4.95%      4.95% |          22      6.81%     11.76% |          12      3.72%     15.48% |          24      7.43%     22.91% |          18      5.57%     28.48% |          23      7.12%     35.60% |          22      6.81%     42.41% |          19      5.88%     48.30% |          20      6.19%     54.49% |          19      5.88%     60.37% |          19      5.88%     66.25% |          18      5.57%     71.83% |          21      6.50%     78.33% |          21      6.50%     84.83% |          24      7.43%     92.26% |          25      7.74%    100.00%
system.ruby.L2Cache_Controller.MCT_I.WB_Data::total          323                      
system.ruby.L2Cache_Controller.MCT_I.Ack_all |           0      0.00%      0.00% |           2      8.00%      8.00% |           0      0.00%      8.00% |           6     24.00%     32.00% |           2      8.00%     40.00% |           2      8.00%     48.00% |           1      4.00%     52.00% |           4     16.00%     68.00% |           1      4.00%     72.00% |           2      8.00%     80.00% |           1      4.00%     84.00% |           1      4.00%     88.00% |           1      4.00%     92.00% |           1      4.00%     96.00% |           1      4.00%    100.00% |           0      0.00%    100.00%
system.ruby.L2Cache_Controller.MCT_I.Ack_all::total           25                      
system.ruby.L2Cache_Controller.I_I.L1_GET_INSTR |           0      0.00%      0.00% |           0      0.00%      0.00% |           2    100.00%    100.00% |           0      0.00%    100.00% |           0      0.00%    100.00% |           0      0.00%    100.00% |           0      0.00%    100.00% |           0      0.00%    100.00% |           0      0.00%    100.00% |           0      0.00%    100.00% |           0      0.00%    100.00% |           0      0.00%    100.00% |           0      0.00%    100.00% |           0      0.00%    100.00% |           0      0.00%    100.00% |           0      0.00%    100.00%
system.ruby.L2Cache_Controller.I_I.L1_GET_INSTR::total            2                      
system.ruby.L2Cache_Controller.I_I.Ack_all |         499      5.95%      5.95% |         580      6.91%     12.86% |         556      6.63%     19.49% |         490      5.84%     25.32% |         527      6.28%     31.61% |         571      6.80%     38.41% |         552      6.58%     44.99% |         521      6.21%     51.20% |         582      6.94%     58.13% |         426      5.08%     63.21% |         480      5.72%     68.93% |         495      5.90%     74.83% |         521      6.21%     81.04% |         529      6.30%     87.34% |         584      6.96%     94.30% |         478      5.70%    100.00%
system.ruby.L2Cache_Controller.I_I.Ack_all::total         8391                      
system.ruby.L2Cache_Controller.S_I.Ack   |           0      0.00%      0.00% |           2      8.70%      8.70% |           0      0.00%      8.70% |           2      8.70%     17.39% |           0      0.00%     17.39% |           2      8.70%     26.09% |           1      4.35%     30.43% |           1      4.35%     34.78% |           3     13.04%     47.83% |           1      4.35%     52.17% |           2      8.70%     60.87% |           1      4.35%     65.22% |           2      8.70%     73.91% |           2      8.70%     82.61% |           3     13.04%     95.65% |           1      4.35%    100.00%
system.ruby.L2Cache_Controller.S_I.Ack::total           23                      
system.ruby.L2Cache_Controller.S_I.Ack_all |           0      0.00%      0.00% |           2      8.70%      8.70% |           0      0.00%      8.70% |           2      8.70%     17.39% |           0      0.00%     17.39% |           2      8.70%     26.09% |           1      4.35%     30.43% |           1      4.35%     34.78% |           3     13.04%     47.83% |           1      4.35%     52.17% |           2      8.70%     60.87% |           1      4.35%     65.22% |           2      8.70%     73.91% |           2      8.70%     82.61% |           3     13.04%     95.65% |           1      4.35%    100.00%
system.ruby.L2Cache_Controller.S_I.Ack_all::total           23                      
system.ruby.L2Cache_Controller.ISS.Mem_Data |       28848      6.27%      6.27% |       28584      6.21%     12.48% |       28350      6.16%     18.64% |       28752      6.25%     24.89% |       28489      6.19%     31.08% |       28724      6.24%     37.32% |       28786      6.25%     43.57% |       28829      6.26%     49.83% |       28940      6.29%     56.12% |       28685      6.23%     62.35% |       28774      6.25%     68.61% |       28836      6.27%     74.87% |       29045      6.31%     81.18% |       28984      6.30%     87.48% |       28835      6.27%     93.74% |       28790      6.26%    100.00%
system.ruby.L2Cache_Controller.ISS.Mem_Data::total       460251                      
system.ruby.L2Cache_Controller.IS.Mem_Data |        1364      6.44%      6.44% |        1365      6.44%     12.88% |        1490      7.03%     19.91% |        1287      6.07%     25.98% |        1345      6.35%     32.33% |        1334      6.29%     38.62% |        1282      6.05%     44.67% |        1291      6.09%     50.76% |        1367      6.45%     57.21% |        1164      5.49%     62.70% |        1250      5.90%     68.60% |        1265      5.97%     74.57% |        1228      5.79%     80.37% |        1301      6.14%     86.50% |        1514      7.14%     93.65% |        1346      6.35%    100.00%
system.ruby.L2Cache_Controller.IS.Mem_Data::total        21193                      
system.ruby.L2Cache_Controller.IM.Mem_Data |        8351      6.22%      6.22% |        8424      6.28%     12.50% |        8463      6.31%     18.81% |        8415      6.27%     25.08% |        8426      6.28%     31.36% |        8406      6.26%     37.63% |        8408      6.27%     43.89% |        8413      6.27%     50.16% |        8361      6.23%     56.39% |        8341      6.22%     62.61% |        8375      6.24%     68.85% |        8346      6.22%     75.07% |        8335      6.21%     81.28% |        8370      6.24%     87.52% |        8376      6.24%     93.76% |        8368      6.24%    100.00%
system.ruby.L2Cache_Controller.IM.Mem_Data::total       134178                      
system.ruby.L2Cache_Controller.SS_MB.Exclusive_Unblock |          42      3.91%      3.91% |          42      3.91%      7.82% |          70      6.52%     14.34% |          56      5.21%     19.55% |          56      5.21%     24.77% |          84      7.82%     32.59% |          84      7.82%     40.41% |          84      7.82%     48.23% |          84      7.82%     56.05% |          84      7.82%     63.87% |          83      7.73%     71.60% |          81      7.54%     79.14% |          70      6.52%     85.66% |          70      6.52%     92.18% |          42      3.91%     96.09% |          42      3.91%    100.00%
system.ruby.L2Cache_Controller.SS_MB.Exclusive_Unblock::total         1074                      
system.ruby.L2Cache_Controller.MT_MB.Exclusive_Unblock |       48913      6.22%      6.22% |       48920      6.22%     12.44% |       48794      6.21%     18.65% |       49238      6.26%     24.91% |       48606      6.18%     31.09% |       48511      6.17%     37.26% |       48705      6.19%     43.45% |       49055      6.24%     49.69% |       49074      6.24%     55.93% |       48606      6.18%     62.11% |       48916      6.22%     68.34% |       49635      6.31%     74.65% |       51902      6.60%     81.25% |       49568      6.30%     87.55% |       49333      6.27%     93.83% |       48545      6.17%    100.00%
system.ruby.L2Cache_Controller.MT_MB.Exclusive_Unblock::total       786321                      
system.ruby.L2Cache_Controller.MT_IIB.WB_Data |          70      3.99%      3.99% |          68      3.87%      7.86% |          97      5.52%     13.38% |          97      5.52%     18.91% |          97      5.52%     24.43% |         139      7.92%     32.35% |         138      7.86%     40.21% |         140      7.97%     48.18% |         140      7.97%     56.15% |         138      7.86%     64.01% |         135      7.69%     71.70% |         134      7.63%     79.33% |         112      6.38%     85.71% |         111      6.32%     92.03% |          70      3.99%     96.01% |          70      3.99%    100.00%
system.ruby.L2Cache_Controller.MT_IIB.WB_Data::total         1756                      
system.ruby.L2Cache_Controller.MT_IIB.Unblock |           0      0.00%      0.00% |           2     14.29%     14.29% |           1      7.14%     21.43% |           1      7.14%     28.57% |           1      7.14%     35.71% |           1      7.14%     42.86% |           2     14.29%     57.14% |           0      0.00%     57.14% |           0      0.00%     57.14% |           2     14.29%     71.43% |           3     21.43%     92.86% |           0      0.00%     92.86% |           0      0.00%     92.86% |           1      7.14%    100.00% |           0      0.00%    100.00% |           0      0.00%    100.00%
system.ruby.L2Cache_Controller.MT_IIB.Unblock::total           14                      
system.ruby.L2Cache_Controller.MT_IB.WB_Data |           0      0.00%      0.00% |           2     14.29%     14.29% |           1      7.14%     21.43% |           1      7.14%     28.57% |           1      7.14%     35.71% |           1      7.14%     42.86% |           2     14.29%     57.14% |           0      0.00%     57.14% |           0      0.00%     57.14% |           2     14.29%     71.43% |           3     21.43%     92.86% |           0      0.00%     92.86% |           0      0.00%     92.86% |           1      7.14%    100.00% |           0      0.00%    100.00% |           0      0.00%    100.00%
system.ruby.L2Cache_Controller.MT_IB.WB_Data::total           14                      
system.ruby.L2Cache_Controller.MT_SB.Unblock |          70      3.99%      3.99% |          68      3.87%      7.86% |          97      5.52%     13.38% |          97      5.52%     18.91% |          97      5.52%     24.43% |         139      7.92%     32.35% |         138      7.86%     40.21% |         140      7.97%     48.18% |         140      7.97%     56.15% |         138      7.86%     64.01% |         135      7.69%     71.70% |         134      7.63%     79.33% |         112      6.38%     85.71% |         111      6.32%     92.03% |          70      3.99%     96.01% |          70      3.99%    100.00%
system.ruby.L2Cache_Controller.MT_SB.Unblock::total         1756                      

---------- End Simulation Statistics   ----------
