
---------- Begin Simulation Statistics ----------
sim_seconds                                  0.014586                       # Number of seconds simulated
sim_ticks                                 14586140500                       # Number of ticks simulated
final_tick                                14586140500                       # Number of ticks from beginning of simulation (restored from checkpoints and never reset)
sim_freq                                 1000000000000                       # Frequency of simulated ticks
host_inst_rate                                   6429                       # Simulator instruction rate (inst/s)
host_op_rate                                    11081                       # Simulator op (including micro ops) rate (op/s)
host_tick_rate                                1890171                       # Simulator tick rate (ticks/s)
host_mem_usage                                2270016                       # Number of bytes of host memory used
host_seconds                                  7716.83                       # Real time elapsed on the host
sim_insts                                    49612045                       # Number of instructions simulated
sim_ops                                      85506432                       # Number of ops (including micro ops) simulated
system.voltage_domain.voltage                       1                       # Voltage in Volts
system.clk_domain.clock                          1000                       # Clock period in ticks
system.mem_ctrls0.pwrStateResidencyTicks::UNDEFINED  14586140500                       # Cumulative time (in ticks) in various power states
system.mem_ctrls0.bytes_read::ruby.dir_cntrl0      2339584                       # Number of bytes read from this memory
system.mem_ctrls0.bytes_read::total           2339584                       # Number of bytes read from this memory
system.mem_ctrls0.bytes_written::ruby.dir_cntrl0          640                       # Number of bytes written to this memory
system.mem_ctrls0.bytes_written::total            640                       # Number of bytes written to this memory
system.mem_ctrls0.num_reads::ruby.dir_cntrl0        36556                       # Number of read requests responded to by this memory
system.mem_ctrls0.num_reads::total              36556                       # Number of read requests responded to by this memory
system.mem_ctrls0.num_writes::ruby.dir_cntrl0           10                       # Number of write requests responded to by this memory
system.mem_ctrls0.num_writes::total                10                       # Number of write requests responded to by this memory
system.mem_ctrls0.bw_read::ruby.dir_cntrl0    160397742                       # Total read bandwidth from this memory (bytes/s)
system.mem_ctrls0.bw_read::total            160397742                       # Total read bandwidth from this memory (bytes/s)
system.mem_ctrls0.bw_write::ruby.dir_cntrl0        43877                       # Write bandwidth from this memory (bytes/s)
system.mem_ctrls0.bw_write::total               43877                       # Write bandwidth from this memory (bytes/s)
system.mem_ctrls0.bw_total::ruby.dir_cntrl0    160441619                       # Total bandwidth to/from this memory (bytes/s)
system.mem_ctrls0.bw_total::total           160441619                       # Total bandwidth to/from this memory (bytes/s)
system.mem_ctrls0.readReqs                      36556                       # Number of read requests accepted
system.mem_ctrls0.writeReqs                        10                       # Number of write requests accepted
system.mem_ctrls0.readBursts                    36556                       # Number of DRAM read bursts, including those serviced by the write queue
system.mem_ctrls0.writeBursts                      10                       # Number of DRAM write bursts, including those merged in the write queue
system.mem_ctrls0.bytesReadDRAM               2339456                       # Total number of bytes read from DRAM
system.mem_ctrls0.bytesReadWrQ                    128                       # Total number of bytes read from write queue
system.mem_ctrls0.bytesWritten                      0                       # Total number of bytes written to DRAM
system.mem_ctrls0.bytesReadSys                2339584                       # Total read bytes from the system interface side
system.mem_ctrls0.bytesWrittenSys                 640                       # Total written bytes from the system interface side
system.mem_ctrls0.servicedByWrQ                     2                       # Number of DRAM read bursts serviced by the write queue
system.mem_ctrls0.mergedWrBursts                    0                       # Number of DRAM write bursts merged with an existing one
system.mem_ctrls0.neitherReadNorWriteReqs            0                       # Number of requests that are neither read nor write
system.mem_ctrls0.perBankRdBursts::0             2109                       # Per bank write bursts
system.mem_ctrls0.perBankRdBursts::1             2090                       # Per bank write bursts
system.mem_ctrls0.perBankRdBursts::2             1880                       # Per bank write bursts
system.mem_ctrls0.perBankRdBursts::3             2294                       # Per bank write bursts
system.mem_ctrls0.perBankRdBursts::4             2275                       # Per bank write bursts
system.mem_ctrls0.perBankRdBursts::5             2115                       # Per bank write bursts
system.mem_ctrls0.perBankRdBursts::6             2474                       # Per bank write bursts
system.mem_ctrls0.perBankRdBursts::7             2313                       # Per bank write bursts
system.mem_ctrls0.perBankRdBursts::8             2003                       # Per bank write bursts
system.mem_ctrls0.perBankRdBursts::9             2245                       # Per bank write bursts
system.mem_ctrls0.perBankRdBursts::10            2290                       # Per bank write bursts
system.mem_ctrls0.perBankRdBursts::11            2305                       # Per bank write bursts
system.mem_ctrls0.perBankRdBursts::12            2436                       # Per bank write bursts
system.mem_ctrls0.perBankRdBursts::13            2598                       # Per bank write bursts
system.mem_ctrls0.perBankRdBursts::14            2571                       # Per bank write bursts
system.mem_ctrls0.perBankRdBursts::15            2556                       # Per bank write bursts
system.mem_ctrls0.perBankWrBursts::0                0                       # Per bank write bursts
system.mem_ctrls0.perBankWrBursts::1                0                       # Per bank write bursts
system.mem_ctrls0.perBankWrBursts::2                0                       # Per bank write bursts
system.mem_ctrls0.perBankWrBursts::3                0                       # Per bank write bursts
system.mem_ctrls0.perBankWrBursts::4                0                       # Per bank write bursts
system.mem_ctrls0.perBankWrBursts::5                0                       # Per bank write bursts
system.mem_ctrls0.perBankWrBursts::6                0                       # Per bank write bursts
system.mem_ctrls0.perBankWrBursts::7                0                       # Per bank write bursts
system.mem_ctrls0.perBankWrBursts::8                0                       # Per bank write bursts
system.mem_ctrls0.perBankWrBursts::9                0                       # Per bank write bursts
system.mem_ctrls0.perBankWrBursts::10               0                       # Per bank write bursts
system.mem_ctrls0.perBankWrBursts::11               0                       # Per bank write bursts
system.mem_ctrls0.perBankWrBursts::12               0                       # Per bank write bursts
system.mem_ctrls0.perBankWrBursts::13               0                       # Per bank write bursts
system.mem_ctrls0.perBankWrBursts::14               0                       # Per bank write bursts
system.mem_ctrls0.perBankWrBursts::15               0                       # Per bank write bursts
system.mem_ctrls0.numRdRetry                        0                       # Number of times read queue was full causing retry
system.mem_ctrls0.numWrRetry                        0                       # Number of times write queue was full causing retry
system.mem_ctrls0.totGap                  14585073000                       # Total gap between requests
system.mem_ctrls0.readPktSize::0                    0                       # Read request sizes (log2)
system.mem_ctrls0.readPktSize::1                    0                       # Read request sizes (log2)
system.mem_ctrls0.readPktSize::2                    0                       # Read request sizes (log2)
system.mem_ctrls0.readPktSize::3                    0                       # Read request sizes (log2)
system.mem_ctrls0.readPktSize::4                    0                       # Read request sizes (log2)
system.mem_ctrls0.readPktSize::5                    0                       # Read request sizes (log2)
system.mem_ctrls0.readPktSize::6                36556                       # Read request sizes (log2)
system.mem_ctrls0.writePktSize::0                   0                       # Write request sizes (log2)
system.mem_ctrls0.writePktSize::1                   0                       # Write request sizes (log2)
system.mem_ctrls0.writePktSize::2                   0                       # Write request sizes (log2)
system.mem_ctrls0.writePktSize::3                   0                       # Write request sizes (log2)
system.mem_ctrls0.writePktSize::4                   0                       # Write request sizes (log2)
system.mem_ctrls0.writePktSize::5                   0                       # Write request sizes (log2)
system.mem_ctrls0.writePktSize::6                  10                       # Write request sizes (log2)
system.mem_ctrls0.rdQLenPdf::0                  25544                       # What read queue length does an incoming req see
system.mem_ctrls0.rdQLenPdf::1                   6328                       # What read queue length does an incoming req see
system.mem_ctrls0.rdQLenPdf::2                   2306                       # What read queue length does an incoming req see
system.mem_ctrls0.rdQLenPdf::3                   1122                       # What read queue length does an incoming req see
system.mem_ctrls0.rdQLenPdf::4                    560                       # What read queue length does an incoming req see
system.mem_ctrls0.rdQLenPdf::5                    307                       # What read queue length does an incoming req see
system.mem_ctrls0.rdQLenPdf::6                    173                       # What read queue length does an incoming req see
system.mem_ctrls0.rdQLenPdf::7                     77                       # What read queue length does an incoming req see
system.mem_ctrls0.rdQLenPdf::8                     39                       # What read queue length does an incoming req see
system.mem_ctrls0.rdQLenPdf::9                     27                       # What read queue length does an incoming req see
system.mem_ctrls0.rdQLenPdf::10                    25                       # What read queue length does an incoming req see
system.mem_ctrls0.rdQLenPdf::11                    23                       # What read queue length does an incoming req see
system.mem_ctrls0.rdQLenPdf::12                    23                       # What read queue length does an incoming req see
system.mem_ctrls0.rdQLenPdf::13                     0                       # What read queue length does an incoming req see
system.mem_ctrls0.rdQLenPdf::14                     0                       # What read queue length does an incoming req see
system.mem_ctrls0.rdQLenPdf::15                     0                       # What read queue length does an incoming req see
system.mem_ctrls0.rdQLenPdf::16                     0                       # What read queue length does an incoming req see
system.mem_ctrls0.rdQLenPdf::17                     0                       # What read queue length does an incoming req see
system.mem_ctrls0.rdQLenPdf::18                     0                       # What read queue length does an incoming req see
system.mem_ctrls0.rdQLenPdf::19                     0                       # What read queue length does an incoming req see
system.mem_ctrls0.rdQLenPdf::20                     0                       # What read queue length does an incoming req see
system.mem_ctrls0.rdQLenPdf::21                     0                       # What read queue length does an incoming req see
system.mem_ctrls0.rdQLenPdf::22                     0                       # What read queue length does an incoming req see
system.mem_ctrls0.rdQLenPdf::23                     0                       # What read queue length does an incoming req see
system.mem_ctrls0.rdQLenPdf::24                     0                       # What read queue length does an incoming req see
system.mem_ctrls0.rdQLenPdf::25                     0                       # What read queue length does an incoming req see
system.mem_ctrls0.rdQLenPdf::26                     0                       # What read queue length does an incoming req see
system.mem_ctrls0.rdQLenPdf::27                     0                       # What read queue length does an incoming req see
system.mem_ctrls0.rdQLenPdf::28                     0                       # What read queue length does an incoming req see
system.mem_ctrls0.rdQLenPdf::29                     0                       # What read queue length does an incoming req see
system.mem_ctrls0.rdQLenPdf::30                     0                       # What read queue length does an incoming req see
system.mem_ctrls0.rdQLenPdf::31                     0                       # What read queue length does an incoming req see
system.mem_ctrls0.wrQLenPdf::0                      1                       # What write queue length does an incoming req see
system.mem_ctrls0.wrQLenPdf::1                      1                       # What write queue length does an incoming req see
system.mem_ctrls0.wrQLenPdf::2                      1                       # What write queue length does an incoming req see
system.mem_ctrls0.wrQLenPdf::3                      1                       # What write queue length does an incoming req see
system.mem_ctrls0.wrQLenPdf::4                      1                       # What write queue length does an incoming req see
system.mem_ctrls0.wrQLenPdf::5                      1                       # What write queue length does an incoming req see
system.mem_ctrls0.wrQLenPdf::6                      1                       # What write queue length does an incoming req see
system.mem_ctrls0.wrQLenPdf::7                      1                       # What write queue length does an incoming req see
system.mem_ctrls0.wrQLenPdf::8                      1                       # What write queue length does an incoming req see
system.mem_ctrls0.wrQLenPdf::9                      1                       # What write queue length does an incoming req see
system.mem_ctrls0.wrQLenPdf::10                     0                       # What write queue length does an incoming req see
system.mem_ctrls0.wrQLenPdf::11                     0                       # What write queue length does an incoming req see
system.mem_ctrls0.wrQLenPdf::12                     0                       # What write queue length does an incoming req see
system.mem_ctrls0.wrQLenPdf::13                     0                       # What write queue length does an incoming req see
system.mem_ctrls0.wrQLenPdf::14                     0                       # What write queue length does an incoming req see
system.mem_ctrls0.wrQLenPdf::15                     0                       # What write queue length does an incoming req see
system.mem_ctrls0.wrQLenPdf::16                     0                       # What write queue length does an incoming req see
system.mem_ctrls0.wrQLenPdf::17                     0                       # What write queue length does an incoming req see
system.mem_ctrls0.wrQLenPdf::18                     0                       # What write queue length does an incoming req see
system.mem_ctrls0.wrQLenPdf::19                     0                       # What write queue length does an incoming req see
system.mem_ctrls0.wrQLenPdf::20                     0                       # What write queue length does an incoming req see
system.mem_ctrls0.wrQLenPdf::21                     0                       # What write queue length does an incoming req see
system.mem_ctrls0.wrQLenPdf::22                     0                       # What write queue length does an incoming req see
system.mem_ctrls0.wrQLenPdf::23                     0                       # What write queue length does an incoming req see
system.mem_ctrls0.wrQLenPdf::24                     0                       # What write queue length does an incoming req see
system.mem_ctrls0.wrQLenPdf::25                     0                       # What write queue length does an incoming req see
system.mem_ctrls0.wrQLenPdf::26                     0                       # What write queue length does an incoming req see
system.mem_ctrls0.wrQLenPdf::27                     0                       # What write queue length does an incoming req see
system.mem_ctrls0.wrQLenPdf::28                     0                       # What write queue length does an incoming req see
system.mem_ctrls0.wrQLenPdf::29                     0                       # What write queue length does an incoming req see
system.mem_ctrls0.wrQLenPdf::30                     0                       # What write queue length does an incoming req see
system.mem_ctrls0.wrQLenPdf::31                     0                       # What write queue length does an incoming req see
system.mem_ctrls0.wrQLenPdf::32                     0                       # What write queue length does an incoming req see
system.mem_ctrls0.wrQLenPdf::33                     0                       # What write queue length does an incoming req see
system.mem_ctrls0.wrQLenPdf::34                     0                       # What write queue length does an incoming req see
system.mem_ctrls0.wrQLenPdf::35                     0                       # What write queue length does an incoming req see
system.mem_ctrls0.wrQLenPdf::36                     0                       # What write queue length does an incoming req see
system.mem_ctrls0.wrQLenPdf::37                     0                       # What write queue length does an incoming req see
system.mem_ctrls0.wrQLenPdf::38                     0                       # What write queue length does an incoming req see
system.mem_ctrls0.wrQLenPdf::39                     0                       # What write queue length does an incoming req see
system.mem_ctrls0.wrQLenPdf::40                     0                       # What write queue length does an incoming req see
system.mem_ctrls0.wrQLenPdf::41                     0                       # What write queue length does an incoming req see
system.mem_ctrls0.wrQLenPdf::42                     0                       # What write queue length does an incoming req see
system.mem_ctrls0.wrQLenPdf::43                     0                       # What write queue length does an incoming req see
system.mem_ctrls0.wrQLenPdf::44                     0                       # What write queue length does an incoming req see
system.mem_ctrls0.wrQLenPdf::45                     0                       # What write queue length does an incoming req see
system.mem_ctrls0.wrQLenPdf::46                     0                       # What write queue length does an incoming req see
system.mem_ctrls0.wrQLenPdf::47                     0                       # What write queue length does an incoming req see
system.mem_ctrls0.wrQLenPdf::48                     0                       # What write queue length does an incoming req see
system.mem_ctrls0.wrQLenPdf::49                     0                       # What write queue length does an incoming req see
system.mem_ctrls0.wrQLenPdf::50                     0                       # What write queue length does an incoming req see
system.mem_ctrls0.wrQLenPdf::51                     0                       # What write queue length does an incoming req see
system.mem_ctrls0.wrQLenPdf::52                     0                       # What write queue length does an incoming req see
system.mem_ctrls0.wrQLenPdf::53                     0                       # What write queue length does an incoming req see
system.mem_ctrls0.wrQLenPdf::54                     0                       # What write queue length does an incoming req see
system.mem_ctrls0.wrQLenPdf::55                     0                       # What write queue length does an incoming req see
system.mem_ctrls0.wrQLenPdf::56                     0                       # What write queue length does an incoming req see
system.mem_ctrls0.wrQLenPdf::57                     0                       # What write queue length does an incoming req see
system.mem_ctrls0.wrQLenPdf::58                     0                       # What write queue length does an incoming req see
system.mem_ctrls0.wrQLenPdf::59                     0                       # What write queue length does an incoming req see
system.mem_ctrls0.wrQLenPdf::60                     0                       # What write queue length does an incoming req see
system.mem_ctrls0.wrQLenPdf::61                     0                       # What write queue length does an incoming req see
system.mem_ctrls0.wrQLenPdf::62                     0                       # What write queue length does an incoming req see
system.mem_ctrls0.wrQLenPdf::63                     0                       # What write queue length does an incoming req see
system.mem_ctrls0.bytesPerActivate::samples        21500                       # Bytes accessed per row activation
system.mem_ctrls0.bytesPerActivate::mean   108.794047                       # Bytes accessed per row activation
system.mem_ctrls0.bytesPerActivate::gmean    81.741699                       # Bytes accessed per row activation
system.mem_ctrls0.bytesPerActivate::stdev   125.839755                       # Bytes accessed per row activation
system.mem_ctrls0.bytesPerActivate::0-127        17864     83.09%     83.09% # Bytes accessed per row activation
system.mem_ctrls0.bytesPerActivate::128-255         1602      7.45%     90.54% # Bytes accessed per row activation
system.mem_ctrls0.bytesPerActivate::256-383          397      1.85%     92.39% # Bytes accessed per row activation
system.mem_ctrls0.bytesPerActivate::384-511          238      1.11%     93.49% # Bytes accessed per row activation
system.mem_ctrls0.bytesPerActivate::512-639         1316      6.12%     99.61% # Bytes accessed per row activation
system.mem_ctrls0.bytesPerActivate::640-767           66      0.31%     99.92% # Bytes accessed per row activation
system.mem_ctrls0.bytesPerActivate::768-895            6      0.03%     99.95% # Bytes accessed per row activation
system.mem_ctrls0.bytesPerActivate::896-1023            3      0.01%     99.96% # Bytes accessed per row activation
system.mem_ctrls0.bytesPerActivate::1024-1151            8      0.04%    100.00% # Bytes accessed per row activation
system.mem_ctrls0.bytesPerActivate::total        21500                       # Bytes accessed per row activation
system.mem_ctrls0.totQLat                  1234673750                       # Total ticks spent queuing
system.mem_ctrls0.totMemAccLat             1920061250                       # Total ticks spent from burst creation until serviced by the DRAM
system.mem_ctrls0.totBusLat                 182770000                       # Total ticks spent in databus transfers
system.mem_ctrls0.avgQLat                    33776.71                       # Average queueing delay per DRAM burst
system.mem_ctrls0.avgBusLat                   5000.00                       # Average bus latency per DRAM burst
system.mem_ctrls0.avgMemAccLat               52526.71                       # Average memory access latency per DRAM burst
system.mem_ctrls0.avgRdBW                      160.39                       # Average DRAM read bandwidth in MiByte/s
system.mem_ctrls0.avgWrBW                        0.00                       # Average achieved write bandwidth in MiByte/s
system.mem_ctrls0.avgRdBWSys                   160.40                       # Average system read bandwidth in MiByte/s
system.mem_ctrls0.avgWrBWSys                     0.04                       # Average system write bandwidth in MiByte/s
system.mem_ctrls0.peakBW                     12800.00                       # Theoretical peak bandwidth in MiByte/s
system.mem_ctrls0.busUtil                        1.25                       # Data bus utilization in percentage
system.mem_ctrls0.busUtilRead                    1.25                       # Data bus utilization in percentage for reads
system.mem_ctrls0.busUtilWrite                   0.00                       # Data bus utilization in percentage for writes
system.mem_ctrls0.avgRdQLen                      1.62                       # Average read queue length when enqueuing
system.mem_ctrls0.avgWrQLen                      2.08                       # Average write queue length when enqueuing
system.mem_ctrls0.readRowHits                   15051                       # Number of row buffer hits during reads
system.mem_ctrls0.writeRowHits                      0                       # Number of row buffer hits during writes
system.mem_ctrls0.readRowHitRate                41.17                       # Row buffer hit rate for reads
system.mem_ctrls0.writeRowHitRate                0.00                       # Row buffer hit rate for writes
system.mem_ctrls0.avgGap                    398869.80                       # Average gap between requests
system.mem_ctrls0.pageHitRate                   41.16                       # Row buffer hit rate, read and write combined
system.mem_ctrls0_0.actEnergy                75019980                       # Energy for activate commands per rank (pJ)
system.mem_ctrls0_0.preEnergy                39874065                       # Energy for precharge commands per rank (pJ)
system.mem_ctrls0_0.readEnergy              125307000                       # Energy for read commands per rank (pJ)
system.mem_ctrls0_0.writeEnergy                     0                       # Energy for write commands per rank (pJ)
system.mem_ctrls0_0.refreshEnergy        990799680.000000                       # Energy for refresh commands per rank (pJ)
system.mem_ctrls0_0.actBackEnergy           435020580                       # Energy for active background per rank (pJ)
system.mem_ctrls0_0.preBackEnergy            29670240                       # Energy for precharge background per rank (pJ)
system.mem_ctrls0_0.actPowerDownEnergy     4108258470                       # Energy for active power-down per rank (pJ)
system.mem_ctrls0_0.prePowerDownEnergy      696686400                       # Energy for precharge power-down per rank (pJ)
system.mem_ctrls0_0.selfRefreshEnergy       708633360                       # Energy for self refresh per rank (pJ)
system.mem_ctrls0_0.totalEnergy            7209629475                       # Total energy per rank (pJ)
system.mem_ctrls0_0.averagePower           494.279423                       # Core power per rank (mW)
system.mem_ctrls0_0.totalIdleTime         13548245000                       # Total Idle time Per DRAM Rank
system.mem_ctrls0_0.memoryStateTime::IDLE     33943250                       # Time in different power states
system.mem_ctrls0_0.memoryStateTime::REF    419720000                       # Time in different power states
system.mem_ctrls0_0.memoryStateTime::SREF   2730463500                       # Time in different power states
system.mem_ctrls0_0.memoryStateTime::PRE_PDN   1814165000                       # Time in different power states
system.mem_ctrls0_0.memoryStateTime::ACT    578447500                       # Time in different power states
system.mem_ctrls0_0.memoryStateTime::ACT_PDN   9009401250                       # Time in different power states
system.mem_ctrls0_1.actEnergy                78511440                       # Energy for activate commands per rank (pJ)
system.mem_ctrls0_1.preEnergy                41718435                       # Energy for precharge commands per rank (pJ)
system.mem_ctrls0_1.readEnergy              135688560                       # Energy for read commands per rank (pJ)
system.mem_ctrls0_1.writeEnergy                     0                       # Energy for write commands per rank (pJ)
system.mem_ctrls0_1.refreshEnergy        1031980560.000000                       # Energy for refresh commands per rank (pJ)
system.mem_ctrls0_1.actBackEnergy           458148900                       # Energy for active background per rank (pJ)
system.mem_ctrls0_1.preBackEnergy            32460480                       # Energy for precharge background per rank (pJ)
system.mem_ctrls0_1.actPowerDownEnergy     4229423370                       # Energy for active power-down per rank (pJ)
system.mem_ctrls0_1.prePowerDownEnergy      719432160                       # Energy for precharge power-down per rank (pJ)
system.mem_ctrls0_1.selfRefreshEnergy       627774360                       # Energy for self refresh per rank (pJ)
system.mem_ctrls0_1.totalEnergy            7355422155                       # Total energy per rank (pJ)
system.mem_ctrls0_1.averagePower           504.274710                       # Core power per rank (mW)
system.mem_ctrls0_1.totalIdleTime         13495397500                       # Total Idle time Per DRAM Rank
system.mem_ctrls0_1.memoryStateTime::IDLE     39452500                       # Time in different power states
system.mem_ctrls0_1.memoryStateTime::REF    437278000                       # Time in different power states
system.mem_ctrls0_1.memoryStateTime::SREF   2347695250                       # Time in different power states
system.mem_ctrls0_1.memoryStateTime::PRE_PDN   1873478250                       # Time in different power states
system.mem_ctrls0_1.memoryStateTime::ACT    613069250                       # Time in different power states
system.mem_ctrls0_1.memoryStateTime::ACT_PDN   9275167250                       # Time in different power states
system.mem_ctrls1.pwrStateResidencyTicks::UNDEFINED  14586140500                       # Cumulative time (in ticks) in various power states
system.mem_ctrls1.bytes_read::ruby.dir_cntrl1      2303360                       # Number of bytes read from this memory
system.mem_ctrls1.bytes_read::total           2303360                       # Number of bytes read from this memory
system.mem_ctrls1.bytes_written::ruby.dir_cntrl1          512                       # Number of bytes written to this memory
system.mem_ctrls1.bytes_written::total            512                       # Number of bytes written to this memory
system.mem_ctrls1.num_reads::ruby.dir_cntrl1        35990                       # Number of read requests responded to by this memory
system.mem_ctrls1.num_reads::total              35990                       # Number of read requests responded to by this memory
system.mem_ctrls1.num_writes::ruby.dir_cntrl1            8                       # Number of write requests responded to by this memory
system.mem_ctrls1.num_writes::total                 8                       # Number of write requests responded to by this memory
system.mem_ctrls1.bw_read::ruby.dir_cntrl1    157914289                       # Total read bandwidth from this memory (bytes/s)
system.mem_ctrls1.bw_read::total            157914289                       # Total read bandwidth from this memory (bytes/s)
system.mem_ctrls1.bw_write::ruby.dir_cntrl1        35102                       # Write bandwidth from this memory (bytes/s)
system.mem_ctrls1.bw_write::total               35102                       # Write bandwidth from this memory (bytes/s)
system.mem_ctrls1.bw_total::ruby.dir_cntrl1    157949390                       # Total bandwidth to/from this memory (bytes/s)
system.mem_ctrls1.bw_total::total           157949390                       # Total bandwidth to/from this memory (bytes/s)
system.mem_ctrls1.readReqs                      35990                       # Number of read requests accepted
system.mem_ctrls1.writeReqs                         8                       # Number of write requests accepted
system.mem_ctrls1.readBursts                    35990                       # Number of DRAM read bursts, including those serviced by the write queue
system.mem_ctrls1.writeBursts                       8                       # Number of DRAM write bursts, including those merged in the write queue
system.mem_ctrls1.bytesReadDRAM               2303360                       # Total number of bytes read from DRAM
system.mem_ctrls1.bytesReadWrQ                      0                       # Total number of bytes read from write queue
system.mem_ctrls1.bytesWritten                      0                       # Total number of bytes written to DRAM
system.mem_ctrls1.bytesReadSys                2303360                       # Total read bytes from the system interface side
system.mem_ctrls1.bytesWrittenSys                 512                       # Total written bytes from the system interface side
system.mem_ctrls1.servicedByWrQ                     0                       # Number of DRAM read bursts serviced by the write queue
system.mem_ctrls1.mergedWrBursts                    0                       # Number of DRAM write bursts merged with an existing one
system.mem_ctrls1.neitherReadNorWriteReqs            0                       # Number of requests that are neither read nor write
system.mem_ctrls1.perBankRdBursts::0             2067                       # Per bank write bursts
system.mem_ctrls1.perBankRdBursts::1             2025                       # Per bank write bursts
system.mem_ctrls1.perBankRdBursts::2             1852                       # Per bank write bursts
system.mem_ctrls1.perBankRdBursts::3             2253                       # Per bank write bursts
system.mem_ctrls1.perBankRdBursts::4             2253                       # Per bank write bursts
system.mem_ctrls1.perBankRdBursts::5             2069                       # Per bank write bursts
system.mem_ctrls1.perBankRdBursts::6             2449                       # Per bank write bursts
system.mem_ctrls1.perBankRdBursts::7             2279                       # Per bank write bursts
system.mem_ctrls1.perBankRdBursts::8             2000                       # Per bank write bursts
system.mem_ctrls1.perBankRdBursts::9             2217                       # Per bank write bursts
system.mem_ctrls1.perBankRdBursts::10            2247                       # Per bank write bursts
system.mem_ctrls1.perBankRdBursts::11            2302                       # Per bank write bursts
system.mem_ctrls1.perBankRdBursts::12            2399                       # Per bank write bursts
system.mem_ctrls1.perBankRdBursts::13            2539                       # Per bank write bursts
system.mem_ctrls1.perBankRdBursts::14            2523                       # Per bank write bursts
system.mem_ctrls1.perBankRdBursts::15            2516                       # Per bank write bursts
system.mem_ctrls1.perBankWrBursts::0                0                       # Per bank write bursts
system.mem_ctrls1.perBankWrBursts::1                0                       # Per bank write bursts
system.mem_ctrls1.perBankWrBursts::2                0                       # Per bank write bursts
system.mem_ctrls1.perBankWrBursts::3                0                       # Per bank write bursts
system.mem_ctrls1.perBankWrBursts::4                0                       # Per bank write bursts
system.mem_ctrls1.perBankWrBursts::5                0                       # Per bank write bursts
system.mem_ctrls1.perBankWrBursts::6                0                       # Per bank write bursts
system.mem_ctrls1.perBankWrBursts::7                0                       # Per bank write bursts
system.mem_ctrls1.perBankWrBursts::8                0                       # Per bank write bursts
system.mem_ctrls1.perBankWrBursts::9                0                       # Per bank write bursts
system.mem_ctrls1.perBankWrBursts::10               0                       # Per bank write bursts
system.mem_ctrls1.perBankWrBursts::11               0                       # Per bank write bursts
system.mem_ctrls1.perBankWrBursts::12               0                       # Per bank write bursts
system.mem_ctrls1.perBankWrBursts::13               0                       # Per bank write bursts
system.mem_ctrls1.perBankWrBursts::14               0                       # Per bank write bursts
system.mem_ctrls1.perBankWrBursts::15               0                       # Per bank write bursts
system.mem_ctrls1.numRdRetry                        0                       # Number of times read queue was full causing retry
system.mem_ctrls1.numWrRetry                        0                       # Number of times write queue was full causing retry
system.mem_ctrls1.totGap                  14585355000                       # Total gap between requests
system.mem_ctrls1.readPktSize::0                    0                       # Read request sizes (log2)
system.mem_ctrls1.readPktSize::1                    0                       # Read request sizes (log2)
system.mem_ctrls1.readPktSize::2                    0                       # Read request sizes (log2)
system.mem_ctrls1.readPktSize::3                    0                       # Read request sizes (log2)
system.mem_ctrls1.readPktSize::4                    0                       # Read request sizes (log2)
system.mem_ctrls1.readPktSize::5                    0                       # Read request sizes (log2)
system.mem_ctrls1.readPktSize::6                35990                       # Read request sizes (log2)
system.mem_ctrls1.writePktSize::0                   0                       # Write request sizes (log2)
system.mem_ctrls1.writePktSize::1                   0                       # Write request sizes (log2)
system.mem_ctrls1.writePktSize::2                   0                       # Write request sizes (log2)
system.mem_ctrls1.writePktSize::3                   0                       # Write request sizes (log2)
system.mem_ctrls1.writePktSize::4                   0                       # Write request sizes (log2)
system.mem_ctrls1.writePktSize::5                   0                       # Write request sizes (log2)
system.mem_ctrls1.writePktSize::6                   8                       # Write request sizes (log2)
system.mem_ctrls1.rdQLenPdf::0                  25422                       # What read queue length does an incoming req see
system.mem_ctrls1.rdQLenPdf::1                   6122                       # What read queue length does an incoming req see
system.mem_ctrls1.rdQLenPdf::2                   2168                       # What read queue length does an incoming req see
system.mem_ctrls1.rdQLenPdf::3                   1037                       # What read queue length does an incoming req see
system.mem_ctrls1.rdQLenPdf::4                    542                       # What read queue length does an incoming req see
system.mem_ctrls1.rdQLenPdf::5                    298                       # What read queue length does an incoming req see
system.mem_ctrls1.rdQLenPdf::6                    169                       # What read queue length does an incoming req see
system.mem_ctrls1.rdQLenPdf::7                     87                       # What read queue length does an incoming req see
system.mem_ctrls1.rdQLenPdf::8                     50                       # What read queue length does an incoming req see
system.mem_ctrls1.rdQLenPdf::9                     30                       # What read queue length does an incoming req see
system.mem_ctrls1.rdQLenPdf::10                    27                       # What read queue length does an incoming req see
system.mem_ctrls1.rdQLenPdf::11                    21                       # What read queue length does an incoming req see
system.mem_ctrls1.rdQLenPdf::12                    17                       # What read queue length does an incoming req see
system.mem_ctrls1.rdQLenPdf::13                     0                       # What read queue length does an incoming req see
system.mem_ctrls1.rdQLenPdf::14                     0                       # What read queue length does an incoming req see
system.mem_ctrls1.rdQLenPdf::15                     0                       # What read queue length does an incoming req see
system.mem_ctrls1.rdQLenPdf::16                     0                       # What read queue length does an incoming req see
system.mem_ctrls1.rdQLenPdf::17                     0                       # What read queue length does an incoming req see
system.mem_ctrls1.rdQLenPdf::18                     0                       # What read queue length does an incoming req see
system.mem_ctrls1.rdQLenPdf::19                     0                       # What read queue length does an incoming req see
system.mem_ctrls1.rdQLenPdf::20                     0                       # What read queue length does an incoming req see
system.mem_ctrls1.rdQLenPdf::21                     0                       # What read queue length does an incoming req see
system.mem_ctrls1.rdQLenPdf::22                     0                       # What read queue length does an incoming req see
system.mem_ctrls1.rdQLenPdf::23                     0                       # What read queue length does an incoming req see
system.mem_ctrls1.rdQLenPdf::24                     0                       # What read queue length does an incoming req see
system.mem_ctrls1.rdQLenPdf::25                     0                       # What read queue length does an incoming req see
system.mem_ctrls1.rdQLenPdf::26                     0                       # What read queue length does an incoming req see
system.mem_ctrls1.rdQLenPdf::27                     0                       # What read queue length does an incoming req see
system.mem_ctrls1.rdQLenPdf::28                     0                       # What read queue length does an incoming req see
system.mem_ctrls1.rdQLenPdf::29                     0                       # What read queue length does an incoming req see
system.mem_ctrls1.rdQLenPdf::30                     0                       # What read queue length does an incoming req see
system.mem_ctrls1.rdQLenPdf::31                     0                       # What read queue length does an incoming req see
system.mem_ctrls1.wrQLenPdf::0                      1                       # What write queue length does an incoming req see
system.mem_ctrls1.wrQLenPdf::1                      1                       # What write queue length does an incoming req see
system.mem_ctrls1.wrQLenPdf::2                      1                       # What write queue length does an incoming req see
system.mem_ctrls1.wrQLenPdf::3                      1                       # What write queue length does an incoming req see
system.mem_ctrls1.wrQLenPdf::4                      1                       # What write queue length does an incoming req see
system.mem_ctrls1.wrQLenPdf::5                      1                       # What write queue length does an incoming req see
system.mem_ctrls1.wrQLenPdf::6                      1                       # What write queue length does an incoming req see
system.mem_ctrls1.wrQLenPdf::7                      1                       # What write queue length does an incoming req see
system.mem_ctrls1.wrQLenPdf::8                      0                       # What write queue length does an incoming req see
system.mem_ctrls1.wrQLenPdf::9                      0                       # What write queue length does an incoming req see
system.mem_ctrls1.wrQLenPdf::10                     0                       # What write queue length does an incoming req see
system.mem_ctrls1.wrQLenPdf::11                     0                       # What write queue length does an incoming req see
system.mem_ctrls1.wrQLenPdf::12                     0                       # What write queue length does an incoming req see
system.mem_ctrls1.wrQLenPdf::13                     0                       # What write queue length does an incoming req see
system.mem_ctrls1.wrQLenPdf::14                     0                       # What write queue length does an incoming req see
system.mem_ctrls1.wrQLenPdf::15                     0                       # What write queue length does an incoming req see
system.mem_ctrls1.wrQLenPdf::16                     0                       # What write queue length does an incoming req see
system.mem_ctrls1.wrQLenPdf::17                     0                       # What write queue length does an incoming req see
system.mem_ctrls1.wrQLenPdf::18                     0                       # What write queue length does an incoming req see
system.mem_ctrls1.wrQLenPdf::19                     0                       # What write queue length does an incoming req see
system.mem_ctrls1.wrQLenPdf::20                     0                       # What write queue length does an incoming req see
system.mem_ctrls1.wrQLenPdf::21                     0                       # What write queue length does an incoming req see
system.mem_ctrls1.wrQLenPdf::22                     0                       # What write queue length does an incoming req see
system.mem_ctrls1.wrQLenPdf::23                     0                       # What write queue length does an incoming req see
system.mem_ctrls1.wrQLenPdf::24                     0                       # What write queue length does an incoming req see
system.mem_ctrls1.wrQLenPdf::25                     0                       # What write queue length does an incoming req see
system.mem_ctrls1.wrQLenPdf::26                     0                       # What write queue length does an incoming req see
system.mem_ctrls1.wrQLenPdf::27                     0                       # What write queue length does an incoming req see
system.mem_ctrls1.wrQLenPdf::28                     0                       # What write queue length does an incoming req see
system.mem_ctrls1.wrQLenPdf::29                     0                       # What write queue length does an incoming req see
system.mem_ctrls1.wrQLenPdf::30                     0                       # What write queue length does an incoming req see
system.mem_ctrls1.wrQLenPdf::31                     0                       # What write queue length does an incoming req see
system.mem_ctrls1.wrQLenPdf::32                     0                       # What write queue length does an incoming req see
system.mem_ctrls1.wrQLenPdf::33                     0                       # What write queue length does an incoming req see
system.mem_ctrls1.wrQLenPdf::34                     0                       # What write queue length does an incoming req see
system.mem_ctrls1.wrQLenPdf::35                     0                       # What write queue length does an incoming req see
system.mem_ctrls1.wrQLenPdf::36                     0                       # What write queue length does an incoming req see
system.mem_ctrls1.wrQLenPdf::37                     0                       # What write queue length does an incoming req see
system.mem_ctrls1.wrQLenPdf::38                     0                       # What write queue length does an incoming req see
system.mem_ctrls1.wrQLenPdf::39                     0                       # What write queue length does an incoming req see
system.mem_ctrls1.wrQLenPdf::40                     0                       # What write queue length does an incoming req see
system.mem_ctrls1.wrQLenPdf::41                     0                       # What write queue length does an incoming req see
system.mem_ctrls1.wrQLenPdf::42                     0                       # What write queue length does an incoming req see
system.mem_ctrls1.wrQLenPdf::43                     0                       # What write queue length does an incoming req see
system.mem_ctrls1.wrQLenPdf::44                     0                       # What write queue length does an incoming req see
system.mem_ctrls1.wrQLenPdf::45                     0                       # What write queue length does an incoming req see
system.mem_ctrls1.wrQLenPdf::46                     0                       # What write queue length does an incoming req see
system.mem_ctrls1.wrQLenPdf::47                     0                       # What write queue length does an incoming req see
system.mem_ctrls1.wrQLenPdf::48                     0                       # What write queue length does an incoming req see
system.mem_ctrls1.wrQLenPdf::49                     0                       # What write queue length does an incoming req see
system.mem_ctrls1.wrQLenPdf::50                     0                       # What write queue length does an incoming req see
system.mem_ctrls1.wrQLenPdf::51                     0                       # What write queue length does an incoming req see
system.mem_ctrls1.wrQLenPdf::52                     0                       # What write queue length does an incoming req see
system.mem_ctrls1.wrQLenPdf::53                     0                       # What write queue length does an incoming req see
system.mem_ctrls1.wrQLenPdf::54                     0                       # What write queue length does an incoming req see
system.mem_ctrls1.wrQLenPdf::55                     0                       # What write queue length does an incoming req see
system.mem_ctrls1.wrQLenPdf::56                     0                       # What write queue length does an incoming req see
system.mem_ctrls1.wrQLenPdf::57                     0                       # What write queue length does an incoming req see
system.mem_ctrls1.wrQLenPdf::58                     0                       # What write queue length does an incoming req see
system.mem_ctrls1.wrQLenPdf::59                     0                       # What write queue length does an incoming req see
system.mem_ctrls1.wrQLenPdf::60                     0                       # What write queue length does an incoming req see
system.mem_ctrls1.wrQLenPdf::61                     0                       # What write queue length does an incoming req see
system.mem_ctrls1.wrQLenPdf::62                     0                       # What write queue length does an incoming req see
system.mem_ctrls1.wrQLenPdf::63                     0                       # What write queue length does an incoming req see
system.mem_ctrls1.bytesPerActivate::samples        21129                       # Bytes accessed per row activation
system.mem_ctrls1.bytesPerActivate::mean   109.005064                       # Bytes accessed per row activation
system.mem_ctrls1.bytesPerActivate::gmean    81.741632                       # Bytes accessed per row activation
system.mem_ctrls1.bytesPerActivate::stdev   126.434802                       # Bytes accessed per row activation
system.mem_ctrls1.bytesPerActivate::0-127        17567     83.14%     83.14% # Bytes accessed per row activation
system.mem_ctrls1.bytesPerActivate::128-255         1561      7.39%     90.53% # Bytes accessed per row activation
system.mem_ctrls1.bytesPerActivate::256-383          352      1.67%     92.20% # Bytes accessed per row activation
system.mem_ctrls1.bytesPerActivate::384-511          224      1.06%     93.26% # Bytes accessed per row activation
system.mem_ctrls1.bytesPerActivate::512-639         1343      6.36%     99.61% # Bytes accessed per row activation
system.mem_ctrls1.bytesPerActivate::640-767           68      0.32%     99.93% # Bytes accessed per row activation
system.mem_ctrls1.bytesPerActivate::768-895            5      0.02%     99.96% # Bytes accessed per row activation
system.mem_ctrls1.bytesPerActivate::896-1023            1      0.00%     99.96% # Bytes accessed per row activation
system.mem_ctrls1.bytesPerActivate::1024-1151            8      0.04%    100.00% # Bytes accessed per row activation
system.mem_ctrls1.bytesPerActivate::total        21129                       # Bytes accessed per row activation
system.mem_ctrls1.totQLat                  1192247750                       # Total ticks spent queuing
system.mem_ctrls1.totMemAccLat             1867060250                       # Total ticks spent from burst creation until serviced by the DRAM
system.mem_ctrls1.totBusLat                 179950000                       # Total ticks spent in databus transfers
system.mem_ctrls1.avgQLat                    33127.20                       # Average queueing delay per DRAM burst
system.mem_ctrls1.avgBusLat                   5000.00                       # Average bus latency per DRAM burst
system.mem_ctrls1.avgMemAccLat               51877.20                       # Average memory access latency per DRAM burst
system.mem_ctrls1.avgRdBW                      157.91                       # Average DRAM read bandwidth in MiByte/s
system.mem_ctrls1.avgWrBW                        0.00                       # Average achieved write bandwidth in MiByte/s
system.mem_ctrls1.avgRdBWSys                   157.91                       # Average system read bandwidth in MiByte/s
system.mem_ctrls1.avgWrBWSys                     0.04                       # Average system write bandwidth in MiByte/s
system.mem_ctrls1.peakBW                     12800.00                       # Theoretical peak bandwidth in MiByte/s
system.mem_ctrls1.busUtil                        1.23                       # Data bus utilization in percentage
system.mem_ctrls1.busUtilRead                    1.23                       # Data bus utilization in percentage for reads
system.mem_ctrls1.busUtilWrite                   0.00                       # Data bus utilization in percentage for writes
system.mem_ctrls1.avgRdQLen                      1.63                       # Average read queue length when enqueuing
system.mem_ctrls1.avgWrQLen                      1.21                       # Average write queue length when enqueuing
system.mem_ctrls1.readRowHits                   14860                       # Number of row buffer hits during reads
system.mem_ctrls1.writeRowHits                      0                       # Number of row buffer hits during writes
system.mem_ctrls1.readRowHitRate                41.29                       # Row buffer hit rate for reads
system.mem_ctrls1.writeRowHitRate                0.00                       # Row buffer hit rate for writes
system.mem_ctrls1.avgGap                    405171.26                       # Average gap between requests
system.mem_ctrls1.pageHitRate                   41.28                       # Row buffer hit rate, read and write combined
system.mem_ctrls1_0.actEnergy                73484880                       # Energy for activate commands per rank (pJ)
system.mem_ctrls1_0.preEnergy                39058140                       # Energy for precharge commands per rank (pJ)
system.mem_ctrls1_0.readEnergy              123143580                       # Energy for read commands per rank (pJ)
system.mem_ctrls1_0.writeEnergy                     0                       # Energy for write commands per rank (pJ)
system.mem_ctrls1_0.refreshEnergy        987111840.000000                       # Energy for refresh commands per rank (pJ)
system.mem_ctrls1_0.actBackEnergy           431124630                       # Energy for active background per rank (pJ)
system.mem_ctrls1_0.preBackEnergy            29689920                       # Energy for precharge background per rank (pJ)
system.mem_ctrls1_0.actPowerDownEnergy     4069333170                       # Energy for active power-down per rank (pJ)
system.mem_ctrls1_0.prePowerDownEnergy      717734400                       # Energy for precharge power-down per rank (pJ)
system.mem_ctrls1_0.selfRefreshEnergy       717422115                       # Energy for self refresh per rank (pJ)
system.mem_ctrls1_0.totalEnergy            7188269565                       # Total energy per rank (pJ)
system.mem_ctrls1_0.averagePower           492.815025                       # Core power per rank (mW)
system.mem_ctrls1_0.totalIdleTime         13561917000                       # Total Idle time Per DRAM Rank
system.mem_ctrls1_0.memoryStateTime::IDLE     33872250                       # Time in different power states
system.mem_ctrls1_0.memoryStateTime::REF    418148000                       # Time in different power states
system.mem_ctrls1_0.memoryStateTime::SREF   2769930750                       # Time in different power states
system.mem_ctrls1_0.memoryStateTime::PRE_PDN   1869211000                       # Time in different power states
system.mem_ctrls1_0.memoryStateTime::ACT    571293250                       # Time in different power states
system.mem_ctrls1_0.memoryStateTime::ACT_PDN   8923685250                       # Time in different power states
system.mem_ctrls1_1.actEnergy                77383320                       # Energy for activate commands per rank (pJ)
system.mem_ctrls1_1.preEnergy                41126415                       # Energy for precharge commands per rank (pJ)
system.mem_ctrls1_1.readEnergy              133825020                       # Energy for read commands per rank (pJ)
system.mem_ctrls1_1.writeEnergy                     0                       # Energy for write commands per rank (pJ)
system.mem_ctrls1_1.refreshEnergy        1033209840.000000                       # Energy for refresh commands per rank (pJ)
system.mem_ctrls1_1.actBackEnergy           455236200                       # Energy for active background per rank (pJ)
system.mem_ctrls1_1.preBackEnergy            33298560                       # Energy for precharge background per rank (pJ)
system.mem_ctrls1_1.actPowerDownEnergy     4231760940                       # Energy for active power-down per rank (pJ)
system.mem_ctrls1_1.prePowerDownEnergy      704907840                       # Energy for precharge power-down per rank (pJ)
system.mem_ctrls1_1.selfRefreshEnergy       640496640                       # Energy for self refresh per rank (pJ)
system.mem_ctrls1_1.totalEnergy            7351455135                       # Total energy per rank (pJ)
system.mem_ctrls1_1.averagePower           504.002739                       # Core power per rank (mW)
system.mem_ctrls1_1.totalIdleTime         13500377250                       # Total Idle time Per DRAM Rank
system.mem_ctrls1_1.memoryStateTime::IDLE     41433500                       # Time in different power states
system.mem_ctrls1_1.memoryStateTime::REF    437810000                       # Time in different power states
system.mem_ctrls1_1.memoryStateTime::SREF   2384756000                       # Time in different power states
system.mem_ctrls1_1.memoryStateTime::PRE_PDN   1835702000                       # Time in different power states
system.mem_ctrls1_1.memoryStateTime::ACT    606135500                       # Time in different power states
system.mem_ctrls1_1.memoryStateTime::ACT_PDN   9280303500                       # Time in different power states
system.mem_ctrls2.pwrStateResidencyTicks::UNDEFINED  14586140500                       # Cumulative time (in ticks) in various power states
system.mem_ctrls2.bytes_read::ruby.dir_cntrl2      2313216                       # Number of bytes read from this memory
system.mem_ctrls2.bytes_read::total           2313216                       # Number of bytes read from this memory
system.mem_ctrls2.bytes_written::ruby.dir_cntrl2          128                       # Number of bytes written to this memory
system.mem_ctrls2.bytes_written::total            128                       # Number of bytes written to this memory
system.mem_ctrls2.num_reads::ruby.dir_cntrl2        36144                       # Number of read requests responded to by this memory
system.mem_ctrls2.num_reads::total              36144                       # Number of read requests responded to by this memory
system.mem_ctrls2.num_writes::ruby.dir_cntrl2            2                       # Number of write requests responded to by this memory
system.mem_ctrls2.num_writes::total                 2                       # Number of write requests responded to by this memory
system.mem_ctrls2.bw_read::ruby.dir_cntrl2    158589998                       # Total read bandwidth from this memory (bytes/s)
system.mem_ctrls2.bw_read::total            158589998                       # Total read bandwidth from this memory (bytes/s)
system.mem_ctrls2.bw_write::ruby.dir_cntrl2         8775                       # Write bandwidth from this memory (bytes/s)
system.mem_ctrls2.bw_write::total                8775                       # Write bandwidth from this memory (bytes/s)
system.mem_ctrls2.bw_total::ruby.dir_cntrl2    158598774                       # Total bandwidth to/from this memory (bytes/s)
system.mem_ctrls2.bw_total::total           158598774                       # Total bandwidth to/from this memory (bytes/s)
system.mem_ctrls2.readReqs                      36144                       # Number of read requests accepted
system.mem_ctrls2.writeReqs                         2                       # Number of write requests accepted
system.mem_ctrls2.readBursts                    36144                       # Number of DRAM read bursts, including those serviced by the write queue
system.mem_ctrls2.writeBursts                       2                       # Number of DRAM write bursts, including those merged in the write queue
system.mem_ctrls2.bytesReadDRAM               2313216                       # Total number of bytes read from DRAM
system.mem_ctrls2.bytesReadWrQ                      0                       # Total number of bytes read from write queue
system.mem_ctrls2.bytesWritten                      0                       # Total number of bytes written to DRAM
system.mem_ctrls2.bytesReadSys                2313216                       # Total read bytes from the system interface side
system.mem_ctrls2.bytesWrittenSys                 128                       # Total written bytes from the system interface side
system.mem_ctrls2.servicedByWrQ                     0                       # Number of DRAM read bursts serviced by the write queue
system.mem_ctrls2.mergedWrBursts                    0                       # Number of DRAM write bursts merged with an existing one
system.mem_ctrls2.neitherReadNorWriteReqs            0                       # Number of requests that are neither read nor write
system.mem_ctrls2.perBankRdBursts::0             2090                       # Per bank write bursts
system.mem_ctrls2.perBankRdBursts::1             2022                       # Per bank write bursts
system.mem_ctrls2.perBankRdBursts::2             1849                       # Per bank write bursts
system.mem_ctrls2.perBankRdBursts::3             2253                       # Per bank write bursts
system.mem_ctrls2.perBankRdBursts::4             2267                       # Per bank write bursts
system.mem_ctrls2.perBankRdBursts::5             2085                       # Per bank write bursts
system.mem_ctrls2.perBankRdBursts::6             2431                       # Per bank write bursts
system.mem_ctrls2.perBankRdBursts::7             2310                       # Per bank write bursts
system.mem_ctrls2.perBankRdBursts::8             1998                       # Per bank write bursts
system.mem_ctrls2.perBankRdBursts::9             2221                       # Per bank write bursts
system.mem_ctrls2.perBankRdBursts::10            2279                       # Per bank write bursts
system.mem_ctrls2.perBankRdBursts::11            2292                       # Per bank write bursts
system.mem_ctrls2.perBankRdBursts::12            2439                       # Per bank write bursts
system.mem_ctrls2.perBankRdBursts::13            2524                       # Per bank write bursts
system.mem_ctrls2.perBankRdBursts::14            2559                       # Per bank write bursts
system.mem_ctrls2.perBankRdBursts::15            2525                       # Per bank write bursts
system.mem_ctrls2.perBankWrBursts::0                0                       # Per bank write bursts
system.mem_ctrls2.perBankWrBursts::1                0                       # Per bank write bursts
system.mem_ctrls2.perBankWrBursts::2                0                       # Per bank write bursts
system.mem_ctrls2.perBankWrBursts::3                0                       # Per bank write bursts
system.mem_ctrls2.perBankWrBursts::4                0                       # Per bank write bursts
system.mem_ctrls2.perBankWrBursts::5                0                       # Per bank write bursts
system.mem_ctrls2.perBankWrBursts::6                0                       # Per bank write bursts
system.mem_ctrls2.perBankWrBursts::7                0                       # Per bank write bursts
system.mem_ctrls2.perBankWrBursts::8                0                       # Per bank write bursts
system.mem_ctrls2.perBankWrBursts::9                0                       # Per bank write bursts
system.mem_ctrls2.perBankWrBursts::10               0                       # Per bank write bursts
system.mem_ctrls2.perBankWrBursts::11               0                       # Per bank write bursts
system.mem_ctrls2.perBankWrBursts::12               0                       # Per bank write bursts
system.mem_ctrls2.perBankWrBursts::13               0                       # Per bank write bursts
system.mem_ctrls2.perBankWrBursts::14               0                       # Per bank write bursts
system.mem_ctrls2.perBankWrBursts::15               0                       # Per bank write bursts
system.mem_ctrls2.numRdRetry                        0                       # Number of times read queue was full causing retry
system.mem_ctrls2.numWrRetry                        0                       # Number of times write queue was full causing retry
system.mem_ctrls2.totGap                  14584984000                       # Total gap between requests
system.mem_ctrls2.readPktSize::0                    0                       # Read request sizes (log2)
system.mem_ctrls2.readPktSize::1                    0                       # Read request sizes (log2)
system.mem_ctrls2.readPktSize::2                    0                       # Read request sizes (log2)
system.mem_ctrls2.readPktSize::3                    0                       # Read request sizes (log2)
system.mem_ctrls2.readPktSize::4                    0                       # Read request sizes (log2)
system.mem_ctrls2.readPktSize::5                    0                       # Read request sizes (log2)
system.mem_ctrls2.readPktSize::6                36144                       # Read request sizes (log2)
system.mem_ctrls2.writePktSize::0                   0                       # Write request sizes (log2)
system.mem_ctrls2.writePktSize::1                   0                       # Write request sizes (log2)
system.mem_ctrls2.writePktSize::2                   0                       # Write request sizes (log2)
system.mem_ctrls2.writePktSize::3                   0                       # Write request sizes (log2)
system.mem_ctrls2.writePktSize::4                   0                       # Write request sizes (log2)
system.mem_ctrls2.writePktSize::5                   0                       # Write request sizes (log2)
system.mem_ctrls2.writePktSize::6                   2                       # Write request sizes (log2)
system.mem_ctrls2.rdQLenPdf::0                  25320                       # What read queue length does an incoming req see
system.mem_ctrls2.rdQLenPdf::1                   6184                       # What read queue length does an incoming req see
system.mem_ctrls2.rdQLenPdf::2                   2237                       # What read queue length does an incoming req see
system.mem_ctrls2.rdQLenPdf::3                   1088                       # What read queue length does an incoming req see
system.mem_ctrls2.rdQLenPdf::4                    577                       # What read queue length does an incoming req see
system.mem_ctrls2.rdQLenPdf::5                    297                       # What read queue length does an incoming req see
system.mem_ctrls2.rdQLenPdf::6                    182                       # What read queue length does an incoming req see
system.mem_ctrls2.rdQLenPdf::7                    115                       # What read queue length does an incoming req see
system.mem_ctrls2.rdQLenPdf::8                     47                       # What read queue length does an incoming req see
system.mem_ctrls2.rdQLenPdf::9                     34                       # What read queue length does an incoming req see
system.mem_ctrls2.rdQLenPdf::10                    23                       # What read queue length does an incoming req see
system.mem_ctrls2.rdQLenPdf::11                    21                       # What read queue length does an incoming req see
system.mem_ctrls2.rdQLenPdf::12                    19                       # What read queue length does an incoming req see
system.mem_ctrls2.rdQLenPdf::13                     0                       # What read queue length does an incoming req see
system.mem_ctrls2.rdQLenPdf::14                     0                       # What read queue length does an incoming req see
system.mem_ctrls2.rdQLenPdf::15                     0                       # What read queue length does an incoming req see
system.mem_ctrls2.rdQLenPdf::16                     0                       # What read queue length does an incoming req see
system.mem_ctrls2.rdQLenPdf::17                     0                       # What read queue length does an incoming req see
system.mem_ctrls2.rdQLenPdf::18                     0                       # What read queue length does an incoming req see
system.mem_ctrls2.rdQLenPdf::19                     0                       # What read queue length does an incoming req see
system.mem_ctrls2.rdQLenPdf::20                     0                       # What read queue length does an incoming req see
system.mem_ctrls2.rdQLenPdf::21                     0                       # What read queue length does an incoming req see
system.mem_ctrls2.rdQLenPdf::22                     0                       # What read queue length does an incoming req see
system.mem_ctrls2.rdQLenPdf::23                     0                       # What read queue length does an incoming req see
system.mem_ctrls2.rdQLenPdf::24                     0                       # What read queue length does an incoming req see
system.mem_ctrls2.rdQLenPdf::25                     0                       # What read queue length does an incoming req see
system.mem_ctrls2.rdQLenPdf::26                     0                       # What read queue length does an incoming req see
system.mem_ctrls2.rdQLenPdf::27                     0                       # What read queue length does an incoming req see
system.mem_ctrls2.rdQLenPdf::28                     0                       # What read queue length does an incoming req see
system.mem_ctrls2.rdQLenPdf::29                     0                       # What read queue length does an incoming req see
system.mem_ctrls2.rdQLenPdf::30                     0                       # What read queue length does an incoming req see
system.mem_ctrls2.rdQLenPdf::31                     0                       # What read queue length does an incoming req see
system.mem_ctrls2.wrQLenPdf::0                      1                       # What write queue length does an incoming req see
system.mem_ctrls2.wrQLenPdf::1                      1                       # What write queue length does an incoming req see
system.mem_ctrls2.wrQLenPdf::2                      0                       # What write queue length does an incoming req see
system.mem_ctrls2.wrQLenPdf::3                      0                       # What write queue length does an incoming req see
system.mem_ctrls2.wrQLenPdf::4                      0                       # What write queue length does an incoming req see
system.mem_ctrls2.wrQLenPdf::5                      0                       # What write queue length does an incoming req see
system.mem_ctrls2.wrQLenPdf::6                      0                       # What write queue length does an incoming req see
system.mem_ctrls2.wrQLenPdf::7                      0                       # What write queue length does an incoming req see
system.mem_ctrls2.wrQLenPdf::8                      0                       # What write queue length does an incoming req see
system.mem_ctrls2.wrQLenPdf::9                      0                       # What write queue length does an incoming req see
system.mem_ctrls2.wrQLenPdf::10                     0                       # What write queue length does an incoming req see
system.mem_ctrls2.wrQLenPdf::11                     0                       # What write queue length does an incoming req see
system.mem_ctrls2.wrQLenPdf::12                     0                       # What write queue length does an incoming req see
system.mem_ctrls2.wrQLenPdf::13                     0                       # What write queue length does an incoming req see
system.mem_ctrls2.wrQLenPdf::14                     0                       # What write queue length does an incoming req see
system.mem_ctrls2.wrQLenPdf::15                     0                       # What write queue length does an incoming req see
system.mem_ctrls2.wrQLenPdf::16                     0                       # What write queue length does an incoming req see
system.mem_ctrls2.wrQLenPdf::17                     0                       # What write queue length does an incoming req see
system.mem_ctrls2.wrQLenPdf::18                     0                       # What write queue length does an incoming req see
system.mem_ctrls2.wrQLenPdf::19                     0                       # What write queue length does an incoming req see
system.mem_ctrls2.wrQLenPdf::20                     0                       # What write queue length does an incoming req see
system.mem_ctrls2.wrQLenPdf::21                     0                       # What write queue length does an incoming req see
system.mem_ctrls2.wrQLenPdf::22                     0                       # What write queue length does an incoming req see
system.mem_ctrls2.wrQLenPdf::23                     0                       # What write queue length does an incoming req see
system.mem_ctrls2.wrQLenPdf::24                     0                       # What write queue length does an incoming req see
system.mem_ctrls2.wrQLenPdf::25                     0                       # What write queue length does an incoming req see
system.mem_ctrls2.wrQLenPdf::26                     0                       # What write queue length does an incoming req see
system.mem_ctrls2.wrQLenPdf::27                     0                       # What write queue length does an incoming req see
system.mem_ctrls2.wrQLenPdf::28                     0                       # What write queue length does an incoming req see
system.mem_ctrls2.wrQLenPdf::29                     0                       # What write queue length does an incoming req see
system.mem_ctrls2.wrQLenPdf::30                     0                       # What write queue length does an incoming req see
system.mem_ctrls2.wrQLenPdf::31                     0                       # What write queue length does an incoming req see
system.mem_ctrls2.wrQLenPdf::32                     0                       # What write queue length does an incoming req see
system.mem_ctrls2.wrQLenPdf::33                     0                       # What write queue length does an incoming req see
system.mem_ctrls2.wrQLenPdf::34                     0                       # What write queue length does an incoming req see
system.mem_ctrls2.wrQLenPdf::35                     0                       # What write queue length does an incoming req see
system.mem_ctrls2.wrQLenPdf::36                     0                       # What write queue length does an incoming req see
system.mem_ctrls2.wrQLenPdf::37                     0                       # What write queue length does an incoming req see
system.mem_ctrls2.wrQLenPdf::38                     0                       # What write queue length does an incoming req see
system.mem_ctrls2.wrQLenPdf::39                     0                       # What write queue length does an incoming req see
system.mem_ctrls2.wrQLenPdf::40                     0                       # What write queue length does an incoming req see
system.mem_ctrls2.wrQLenPdf::41                     0                       # What write queue length does an incoming req see
system.mem_ctrls2.wrQLenPdf::42                     0                       # What write queue length does an incoming req see
system.mem_ctrls2.wrQLenPdf::43                     0                       # What write queue length does an incoming req see
system.mem_ctrls2.wrQLenPdf::44                     0                       # What write queue length does an incoming req see
system.mem_ctrls2.wrQLenPdf::45                     0                       # What write queue length does an incoming req see
system.mem_ctrls2.wrQLenPdf::46                     0                       # What write queue length does an incoming req see
system.mem_ctrls2.wrQLenPdf::47                     0                       # What write queue length does an incoming req see
system.mem_ctrls2.wrQLenPdf::48                     0                       # What write queue length does an incoming req see
system.mem_ctrls2.wrQLenPdf::49                     0                       # What write queue length does an incoming req see
system.mem_ctrls2.wrQLenPdf::50                     0                       # What write queue length does an incoming req see
system.mem_ctrls2.wrQLenPdf::51                     0                       # What write queue length does an incoming req see
system.mem_ctrls2.wrQLenPdf::52                     0                       # What write queue length does an incoming req see
system.mem_ctrls2.wrQLenPdf::53                     0                       # What write queue length does an incoming req see
system.mem_ctrls2.wrQLenPdf::54                     0                       # What write queue length does an incoming req see
system.mem_ctrls2.wrQLenPdf::55                     0                       # What write queue length does an incoming req see
system.mem_ctrls2.wrQLenPdf::56                     0                       # What write queue length does an incoming req see
system.mem_ctrls2.wrQLenPdf::57                     0                       # What write queue length does an incoming req see
system.mem_ctrls2.wrQLenPdf::58                     0                       # What write queue length does an incoming req see
[...]
system.ruby.L2Cache_Controller.Ack_all::total           78                      
system.ruby.L2Cache_Controller.Unblock   |          70      3.94%      3.94% |          70      3.94%      7.87% |          98      5.51%     13.39% |          98      5.51%     18.90% |          98      5.51%     24.41% |         140      7.87%     32.28% |         140      7.87%     40.16% |         140      7.87%     48.03% |         140      7.87%     55.91% |         140      7.87%     63.78% |         140      7.87%     71.65% |         140      7.87%     79.53% |         112      6.30%     85.83% |         112      6.30%     92.13% |          70      3.94%     96.06% |          70      3.94%    100.00%
system.ruby.L2Cache_Controller.Unblock::total         1778                      
system.ruby.L2Cache_Controller.Exclusive_Unblock |       63879      6.23%      6.23% |       63792      6.22%     12.46% |       63580      6.20%     18.66% |       64169      6.26%     24.92% |       63557      6.20%     31.12% |       63629      6.21%     37.33% |       63709      6.22%     43.54% |       64063      6.25%     49.79% |       64050      6.25%     56.04% |       63625      6.21%     62.25% |       64094      6.25%     68.50% |       64745      6.32%     74.82% |       64504      6.29%     81.11% |       64532      6.30%     87.40% |       65646      6.40%     93.81% |       63462      6.19%    100.00%
system.ruby.L2Cache_Controller.Exclusive_Unblock::total      1025036                      
system.ruby.L2Cache_Controller.NP.L1_GET_INSTR |        1302      6.30%      6.30% |        1330      6.44%     12.74% |        1457      7.05%     19.80% |        1247      6.04%     25.84% |        1316      6.37%     32.21% |        1288      6.24%     38.44% |        1261      6.11%     44.55% |        1260      6.10%     50.65% |        1330      6.44%     57.09% |        1134      5.49%     62.58% |        1232      5.97%     68.55% |        1232      5.97%     74.51% |        1204      5.83%     80.34% |        1274      6.17%     86.51% |        1470      7.12%     93.63% |        1316      6.37%    100.00%
system.ruby.L2Cache_Controller.NP.L1_GET_INSTR::total        20653                      
system.ruby.L2Cache_Controller.NP.L1_GETS |        8470      6.32%      6.32% |        8218      6.13%     12.45% |        7980      5.95%     18.40% |        8359      6.24%     24.64% |        8120      6.06%     30.69% |        8316      6.20%     36.90% |        8386      6.26%     43.15% |        8415      6.28%     49.43% |        8514      6.35%     55.78% |        8316      6.20%     61.99% |        8414      6.28%     68.26% |        8457      6.31%     74.57% |        8638      6.44%     81.01% |        8582      6.40%     87.42% |        8428      6.29%     93.70% |        8442      6.30%    100.00%
system.ruby.L2Cache_Controller.NP.L1_GETS::total       134055                      
system.ruby.L2Cache_Controller.NP.L1_GETX |        8464      6.22%      6.22% |        8532      6.27%     12.50% |        8575      6.31%     18.81% |        8526      6.27%     25.08% |        8539      6.28%     31.36% |        8514      6.26%     37.62% |        8528      6.27%     43.89% |        8522      6.27%     50.16% |        8476      6.23%     56.39% |        8460      6.22%     62.61% |        8486      6.24%     68.85% |        8451      6.22%     75.07% |        8444      6.21%     81.28% |        8502      6.25%     87.53% |        8477      6.23%     93.76% |        8478      6.24%    100.00%
system.ruby.L2Cache_Controller.NP.L1_GETX::total       135974                      
system.ruby.L2Cache_Controller.SS.L1_GET_INSTR |         282      3.99%      3.99% |         166      2.35%      6.35% |         290      4.11%     10.45% |          82      1.16%     11.61% |         379      5.37%     16.98% |         113      1.60%     18.58% |         240      3.40%     21.98% |         140      1.98%     23.97% |         191      2.71%     26.67% |          90      1.27%     27.95% |         201      2.85%     30.79% |         189      2.68%     33.47% |         166      2.35%     35.82% |         196      2.78%     38.60% |        4207     59.59%     98.19% |         128      1.81%    100.00%
system.ruby.L2Cache_Controller.SS.L1_GET_INSTR::total         7060                      
system.ruby.L2Cache_Controller.SS.L1_GETS |           0      0.00%      0.00% |           0      0.00%      0.00% |          14     23.73%     23.73% |           0      0.00%     23.73% |           0      0.00%     23.73% |           0      0.00%     23.73% |           0      0.00%     23.73% |           0      0.00%     23.73% |          14     23.73%     47.46% |          14     23.73%     71.19% |           0      0.00%     71.19% |           0      0.00%     71.19% |           0      0.00%     71.19% |          17     28.81%    100.00% |           0      0.00%    100.00% |           0      0.00%    100.00%
system.ruby.L2Cache_Controller.SS.L1_GETS::total           59                      
system.ruby.L2Cache_Controller.SS.L1_GETX |          14      4.33%      4.33% |          14      4.33%      8.67% |          14      4.33%     13.00% |          28      8.67%     21.67% |          28      8.67%     30.34% |          28      8.67%     39.01% |          28      8.67%     47.68% |          28      8.67%     56.35% |          28      8.67%     65.02% |          28      8.67%     73.68% |          15      4.64%     78.33% |          28      8.67%     87.00% |          14      4.33%     91.33% |          14      4.33%     95.67% |           0      0.00%     95.67% |          14      4.33%    100.00%
system.ruby.L2Cache_Controller.SS.L1_GETX::total          323                      
system.ruby.L2Cache_Controller.SS.L1_UPGRADE |          28      3.71%      3.71% |          28      3.71%      7.42% |          56      7.42%     14.83% |          28      3.71%     18.54% |          28      3.71%     22.25% |          56      7.42%     29.67% |          56      7.42%     37.09% |          56      7.42%     44.50% |          56      7.42%     51.92% |          56      7.42%     59.34% |          69      9.14%     68.48% |          56      7.42%     75.89% |          56      7.42%     83.31% |          56      7.42%     90.73% |          42      5.56%     96.29% |          28      3.71%    100.00%
system.ruby.L2Cache_Controller.SS.L1_UPGRADE::total          755                      
system.ruby.L2Cache_Controller.SS.L2_Replacement_clean |           9     11.54%     11.54% |           7      8.97%     20.51% |           6      7.69%     28.21% |           4      5.13%     33.33% |           2      2.56%     35.90% |           4      5.13%     41.03% |           7      8.97%     50.00% |           5      6.41%     56.41% |           8     10.26%     66.67% |           1      1.28%     67.95% |           3      3.85%     71.79% |           3      3.85%     75.64% |           5      6.41%     82.05% |           6      7.69%     89.74% |           4      5.13%     94.87% |           4      5.13%    100.00%
system.ruby.L2Cache_Controller.SS.L2_Replacement_clean::total           78                      
system.ruby.L2Cache_Controller.M.L1_GET_INSTR |          14     25.00%     25.00% |           0      0.00%     25.00% |           0      0.00%     25.00% |           0      0.00%     25.00% |           0      0.00%     25.00% |           0      0.00%     25.00% |           0      0.00%     25.00% |           0      0.00%     25.00% |          14     25.00%     50.00% |          14     25.00%     75.00% |           0      0.00%     75.00% |           0      0.00%     75.00% |           0      0.00%     75.00% |           0      0.00%     75.00% |          14     25.00%    100.00% |           0      0.00%    100.00%
system.ruby.L2Cache_Controller.M.L1_GET_INSTR::total           56                      
system.ruby.L2Cache_Controller.M.L1_GETS |       45895      6.22%      6.22% |       45922      6.23%     12.45% |       45917      6.23%     18.68% |       46279      6.28%     24.95% |       45838      6.22%     31.17% |       45766      6.21%     37.37% |       45802      6.21%     43.58% |       45982      6.23%     49.82% |       46007      6.24%     56.06% |       45778      6.21%     62.26% |       46115      6.25%     68.52% |       46801      6.35%     74.86% |       46390      6.29%     81.15% |       46509      6.31%     87.46% |       47060      6.38%     93.84% |       45442      6.16%    100.00%
system.ruby.L2Cache_Controller.M.L1_GETS::total       737503                      
system.ruby.L2Cache_Controller.M.L1_GETX |        1008      6.14%      6.14% |        1078      6.56%     12.70% |        1038      6.32%     19.02% |         949      5.78%     24.80% |        1004      6.11%     30.91% |         949      5.78%     36.69% |         909      5.53%     42.22% |        1060      6.45%     48.67% |         969      5.90%     54.57% |         987      6.01%     60.58% |         995      6.06%     66.64% |         952      5.80%     72.43% |         962      5.86%     78.29% |         869      5.29%     83.58% |        1639      9.98%     93.56% |        1058      6.44%    100.00%
system.ruby.L2Cache_Controller.M.L1_GETX::total        16426                      
system.ruby.L2Cache_Controller.M.L2_Replacement |           4      7.14%      7.14% |           5      8.93%     16.07% |           1      1.79%     17.86% |           5      8.93%     26.79% |           2      3.57%     30.36% |           4      7.14%     37.50% |           4      7.14%     44.64% |           4      7.14%     51.79% |           6     10.71%     62.50% |           3      5.36%     67.86% |           1      1.79%     69.64% |           1      1.79%     71.43% |           6     10.71%     82.14% |           4      7.14%     89.29% |           5      8.93%     98.21% |           1      1.79%    100.00%
system.ruby.L2Cache_Controller.M.L2_Replacement::total           56                      
system.ruby.L2Cache_Controller.M.L2_Replacement_clean |           7      3.43%      3.43% |          12      5.88%      9.31% |          11      5.39%     14.71% |          11      5.39%     20.10% |           7      3.43%     23.53% |          13      6.37%     29.90% |          13      6.37%     36.27% |          20      9.80%     46.08% |          18      8.82%     54.90% |          14      6.86%     61.76% |          14      6.86%     68.63% |          14      6.86%     75.49% |          16      7.84%     83.33% |          13      6.37%     89.71% |          14      6.86%     96.57% |           7      3.43%    100.00%
system.ruby.L2Cache_Controller.M.L2_Replacement_clean::total          204                      
system.ruby.L2Cache_Controller.MT.L1_GETS |          70      3.94%      3.94% |          70      3.94%      7.87% |          98      5.51%     13.39% |          98      5.51%     18.90% |          98      5.51%     24.41% |         140      7.87%     32.28% |         140      7.87%     40.16% |         140      7.87%     48.03% |         140      7.87%     55.91% |         140      7.87%     63.78% |         140      7.87%     71.65% |         140      7.87%     79.53% |         112      6.30%     85.83% |         112      6.30%     92.13% |          70      3.94%     96.06% |          70      3.94%    100.00%
system.ruby.L2Cache_Controller.MT.L1_GETS::total         1778                      
system.ruby.L2Cache_Controller.MT.L1_PUTX |       62913      6.24%      6.24% |       62826      6.23%     12.46% |       62588      6.20%     18.67% |       63175      6.26%     24.93% |       62566      6.20%     31.13% |       62596      6.20%     37.33% |       62673      6.21%     43.54% |       63030      6.25%     49.79% |       63029      6.25%     56.04% |       62592      6.20%     62.24% |       63060      6.25%     68.49% |       63709      6.31%     74.81% |       63498      6.29%     81.10% |       63527      6.30%     87.40% |       64680      6.41%     93.81% |       62499      6.19%    100.00%
system.ruby.L2Cache_Controller.MT.L1_PUTX::total      1008961                      
system.ruby.L2Cache_Controller.M_I.Mem_Ack |          20      5.92%      5.92% |          24      7.10%     13.02% |          18      5.33%     18.34% |          20      5.92%     24.26% |          11      3.25%     27.51% |          21      6.21%     33.73% |          24      7.10%     40.83% |          29      8.58%     49.41% |          32      9.47%     58.88% |          18      5.33%     64.20% |          18      5.33%     69.53% |          18      5.33%     74.85% |          27      7.99%     82.84% |          23      6.80%     89.64% |          23      6.80%     96.45% |          12      3.55%    100.00%
system.ruby.L2Cache_Controller.M_I.Mem_Ack::total          338                      
system.ruby.L2Cache_Controller.I_I.Ack_all |           9     11.54%     11.54% |           7      8.97%     20.51% |           6      7.69%     28.21% |           4      5.13%     33.33% |           2      2.56%     35.90% |           4      5.13%     41.03% |           7      8.97%     50.00% |           5      6.41%     56.41% |           8     10.26%     66.67% |           1      1.28%     67.95% |           3      3.85%     71.79% |           3      3.85%     75.64% |           5      6.41%     82.05% |           6      7.69%     89.74% |           4      5.13%     94.87% |           4      5.13%    100.00%
system.ruby.L2Cache_Controller.I_I.Ack_all::total           78                      
system.ruby.L2Cache_Controller.ISS.Mem_Data |        8470      6.32%      6.32% |        8218      6.13%     12.45% |        7980      5.95%     18.40% |        8359      6.24%     24.64% |        8120      6.06%     30.69% |        8316      6.20%     36.90% |        8386      6.26%     43.15% |        8415      6.28%     49.43% |        8514      6.35%     55.78% |        8316      6.20%     61.99% |        8414      6.28%     68.26% |        8457      6.31%     74.57% |        8638      6.44%     81.01% |        8582      6.40%     87.42% |        8428      6.29%     93.70% |        8442      6.30%    100.00%
system.ruby.L2Cache_Controller.ISS.Mem_Data::total       134055                      
system.ruby.L2Cache_Controller.IS.Mem_Data |        1302      6.30%      6.30% |        1330      6.44%     12.74% |        1457      7.05%     19.80% |        1247      6.04%     25.84% |        1316      6.37%     32.21% |        1288      6.24%     38.44% |        1261      6.11%     44.55% |        1260      6.10%     50.65% |        1330      6.44%     57.09% |        1134      5.49%     62.58% |        1232      5.97%     68.55% |        1232      5.97%     74.51% |        1204      5.83%     80.34% |        1274      6.17%     86.51% |        1470      7.12%     93.63% |        1316      6.37%    100.00%
system.ruby.L2Cache_Controller.IS.Mem_Data::total        20653                      
system.ruby.L2Cache_Controller.IM.Mem_Data |        8464      6.22%      6.22% |        8532      6.27%     12.50% |        8575      6.31%     18.81% |        8526      6.27%     25.08% |        8539      6.28%     31.36% |        8514      6.26%     37.62% |        8528      6.27%     43.89% |        8522      6.27%     50.16% |        8476      6.23%     56.39% |        8460      6.22%     62.61% |        8486      6.24%     68.85% |        8451      6.22%     75.07% |        8444      6.21%     81.28% |        8502      6.25%     87.53% |        8477      6.23%     93.76% |        8478      6.24%    100.00%
system.ruby.L2Cache_Controller.IM.Mem_Data::total       135974                      
system.ruby.L2Cache_Controller.SS_MB.Exclusive_Unblock |          42      3.90%      3.90% |          42      3.90%      7.79% |          70      6.49%     14.29% |          56      5.19%     19.48% |          56      5.19%     24.68% |          84      7.79%     32.47% |          84      7.79%     40.26% |          84      7.79%     48.05% |          84      7.79%     55.84% |          84      7.79%     63.64% |          84      7.79%     71.43% |          84      7.79%     79.22% |          70      6.49%     85.71% |          70      6.49%     92.21% |          42      3.90%     96.10% |          42      3.90%    100.00%
system.ruby.L2Cache_Controller.SS_MB.Exclusive_Unblock::total         1078                      
system.ruby.L2Cache_Controller.MT_MB.Exclusive_Unblock |       63837      6.23%      6.23% |       63750      6.23%     12.46% |       63510      6.20%     18.66% |       64113      6.26%     24.92% |       63501      6.20%     31.13% |       63545      6.21%     37.33% |       63625      6.21%     43.54% |       63979      6.25%     49.79% |       63966      6.25%     56.04% |       63541      6.21%     62.25% |       64010      6.25%     68.50% |       64661      6.31%     74.81% |       64434      6.29%     81.10% |       64462      6.30%     87.40% |       65604      6.41%     93.81% |       63420      6.19%    100.00%
system.ruby.L2Cache_Controller.MT_MB.Exclusive_Unblock::total      1023958                      
system.ruby.L2Cache_Controller.MT_IIB.WB_Data |          69      3.94%      3.94% |          70      4.00%      7.94% |          96      5.48%     13.42% |          95      5.43%     18.85% |          94      5.37%     24.21% |         138      7.88%     32.10% |         139      7.94%     40.03% |         138      7.88%     47.92% |         138      7.88%     55.80% |         140      8.00%     63.79% |         138      7.88%     71.67% |         138      7.88%     79.55% |         110      6.28%     85.84% |         109      6.23%     92.06% |          69      3.94%     96.00% |          70      4.00%    100.00%
system.ruby.L2Cache_Controller.MT_IIB.WB_Data::total         1751                      
system.ruby.L2Cache_Controller.MT_IIB.Unblock |           1      3.70%      3.70% |           0      0.00%      3.70% |           2      7.41%     11.11% |           3     11.11%     22.22% |           4     14.81%     37.04% |           2      7.41%     44.44% |           1      3.70%     48.15% |           2      7.41%     55.56% |           2      7.41%     62.96% |           0      0.00%     62.96% |           2      7.41%     70.37% |           2      7.41%     77.78% |           2      7.41%     85.19% |           3     11.11%     96.30% |           1      3.70%    100.00% |           0      0.00%    100.00%
system.ruby.L2Cache_Controller.MT_IIB.Unblock::total           27                      
system.ruby.L2Cache_Controller.MT_IB.WB_Data |           1      3.70%      3.70% |           0      0.00%      3.70% |           2      7.41%     11.11% |           3     11.11%     22.22% |           4     14.81%     37.04% |           2      7.41%     44.44% |           1      3.70%     48.15% |           2      7.41%     55.56% |           2      7.41%     62.96% |           0      0.00%     62.96% |           2      7.41%     70.37% |           2      7.41%     77.78% |           2      7.41%     85.19% |           3     11.11%     96.30% |           1      3.70%    100.00% |           0      0.00%    100.00%
system.ruby.L2Cache_Controller.MT_IB.WB_Data::total           27                      
system.ruby.L2Cache_Controller.MT_SB.Unblock |          69      3.94%      3.94% |          70      4.00%      7.94% |          96      5.48%     13.42% |          95      5.43%     18.85% |          94      5.37%     24.21% |         138      7.88%     32.10% |         139      7.94%     40.03% |         138      7.88%     47.92% |         138      7.88%     55.80% |         140      8.00%     63.79% |         138      7.88%     71.67% |         138      7.88%     79.55% |         110      6.28%     85.84% |         109      6.23%     92.06% |          69      3.94%     96.00% |          70      4.00%    100.00%
system.ruby.L2Cache_Controller.MT_SB.Unblock::total         1751                      

---------- End Simulation Statistics   ----------
