
---------- Begin Simulation Statistics ----------
sim_seconds                                  0.013353                       # Number of seconds simulated
sim_ticks                                 13353386000                       # Number of ticks simulated
final_tick                                13353386000                       # Number of ticks from beginning of simulation (restored from checkpoints and never reset)
sim_freq                                 1000000000000                       # Frequency of simulated ticks
host_inst_rate                                  34499                       # Simulator instruction rate (inst/s)
host_op_rate                                    60269                       # Simulator op (including micro ops) rate (op/s)
host_tick_rate                               10916347                       # Simulator tick rate (ticks/s)
host_mem_usage                                1757668                       # Number of bytes of host memory used
host_seconds                                  1223.25                       # Real time elapsed on the host
sim_insts                                    42200689                       # Number of instructions simulated
sim_ops                                      73724140                       # Number of ops (including micro ops) simulated
system.voltage_domain.voltage                       1                       # Voltage in Volts
system.clk_domain.clock                          1000                       # Clock period in ticks
system.mem_ctrls0.pwrStateResidencyTicks::UNDEFINED  13353386000                       # Cumulative time (in ticks) in various power states
system.mem_ctrls0.bytes_read::ruby.dir_cntrl0      8482816                       # Number of bytes read from this memory
system.mem_ctrls0.bytes_read::total           8482816                       # Number of bytes read from this memory
system.mem_ctrls0.bytes_written::ruby.dir_cntrl0      1223360                       # Number of bytes written to this memory
system.mem_ctrls0.bytes_written::total        1223360                       # Number of bytes written to this memory
system.mem_ctrls0.num_reads::ruby.dir_cntrl0       132544                       # Number of read requests responded to by this memory
system.mem_ctrls0.num_reads::total             132544                       # Number of read requests responded to by this memory
system.mem_ctrls0.num_writes::ruby.dir_cntrl0        19115                       # Number of write requests responded to by this memory
system.mem_ctrls0.num_writes::total             19115                       # Number of write requests responded to by this memory
system.mem_ctrls0.bw_read::ruby.dir_cntrl0    635255807                       # Total read bandwidth from this memory (bytes/s)
system.mem_ctrls0.bw_read::total            635255807                       # Total read bandwidth from this memory (bytes/s)
system.mem_ctrls0.bw_write::ruby.dir_cntrl0     91614217                       # Write bandwidth from this memory (bytes/s)
system.mem_ctrls0.bw_write::total            91614217                       # Write bandwidth from this memory (bytes/s)
system.mem_ctrls0.bw_total::ruby.dir_cntrl0    726870024                       # Total bandwidth to/from this memory (bytes/s)
system.mem_ctrls0.bw_total::total           726870024                       # Total bandwidth to/from this memory (bytes/s)
system.mem_ctrls0.readReqs                     132544                       # Number of read requests accepted
system.mem_ctrls0.avgNetLat                      0.00                       # Average network latency to DRAM controller
system.mem_ctrls0.writeReqs                     19115                       # Number of write requests accepted
system.mem_ctrls0.readBursts                   132544                       # Number of DRAM read bursts, including those serviced by the write queue
system.mem_ctrls0.writeBursts                   19115                       # Number of DRAM write bursts, including those merged in the write queue
system.mem_ctrls0.bytesReadDRAM               8482560                       # Total number of bytes read from DRAM
system.mem_ctrls0.bytesReadWrQ                    256                       # Total number of bytes read from write queue
system.mem_ctrls0.bytesWritten                1222208                       # Total number of bytes written to DRAM
system.mem_ctrls0.bytesReadSys                8482816                       # Total read bytes from the system interface side
system.mem_ctrls0.bytesWrittenSys             1223360                       # Total written bytes from the system interface side
system.mem_ctrls0.servicedByWrQ                     4                       # Number of DRAM read bursts serviced by the write queue
system.mem_ctrls0.mergedWrBursts                    0                       # Number of DRAM write bursts merged with an existing one
system.mem_ctrls0.neitherReadNorWriteReqs            0                       # Number of requests that are neither read nor write
system.mem_ctrls0.perBankRdBursts::0             7990                       # Per bank write bursts
system.mem_ctrls0.perBankRdBursts::1             7755                       # Per bank write bursts
system.mem_ctrls0.perBankRdBursts::2             8106                       # Per bank write bursts
system.mem_ctrls0.perBankRdBursts::3             8248                       # Per bank write bursts
system.mem_ctrls0.perBankRdBursts::4             8213                       # Per bank write bursts
system.mem_ctrls0.perBankRdBursts::5             8319                       # Per bank write bursts
system.mem_ctrls0.perBankRdBursts::6             8371                       # Per bank write bursts
system.mem_ctrls0.perBankRdBursts::7             8185                       # Per bank write bursts
system.mem_ctrls0.perBankRdBursts::8             8539                       # Per bank write bursts
system.mem_ctrls0.perBankRdBursts::9             8770                       # Per bank write bursts
system.mem_ctrls0.perBankRdBursts::10            9051                       # Per bank write bursts
system.mem_ctrls0.perBankRdBursts::11            8823                       # Per bank write bursts
system.mem_ctrls0.perBankRdBursts::12            8371                       # Per bank write bursts
system.mem_ctrls0.perBankRdBursts::13            8062                       # Per bank write bursts
system.mem_ctrls0.perBankRdBursts::14            7877                       # Per bank write bursts
system.mem_ctrls0.perBankRdBursts::15            7860                       # Per bank write bursts
system.mem_ctrls0.perBankWrBursts::0             1196                       # Per bank write bursts
system.mem_ctrls0.perBankWrBursts::1             1267                       # Per bank write bursts
system.mem_ctrls0.perBankWrBursts::2             1274                       # Per bank write bursts
system.mem_ctrls0.perBankWrBursts::3             1133                       # Per bank write bursts
system.mem_ctrls0.perBankWrBursts::4             1230                       # Per bank write bursts
system.mem_ctrls0.perBankWrBursts::5             1177                       # Per bank write bursts
system.mem_ctrls0.perBankWrBursts::6             1082                       # Per bank write bursts
system.mem_ctrls0.perBankWrBursts::7             1128                       # Per bank write bursts
system.mem_ctrls0.perBankWrBursts::8             1150                       # Per bank write bursts
system.mem_ctrls0.perBankWrBursts::9             1262                       # Per bank write bursts
system.mem_ctrls0.perBankWrBursts::10            1214                       # Per bank write bursts
system.mem_ctrls0.perBankWrBursts::11            1331                       # Per bank write bursts
system.mem_ctrls0.perBankWrBursts::12            1171                       # Per bank write bursts
system.mem_ctrls0.perBankWrBursts::13            1126                       # Per bank write bursts
system.mem_ctrls0.perBankWrBursts::14            1190                       # Per bank write bursts
system.mem_ctrls0.perBankWrBursts::15            1166                       # Per bank write bursts
system.mem_ctrls0.numRdRetry                        0                       # Number of times read queue was full causing retry
system.mem_ctrls0.numWrRetry                        0                       # Number of times write queue was full causing retry
system.mem_ctrls0.totGap                  13352383000                       # Total gap between requests
system.mem_ctrls0.readPktSize::0                    0                       # Read request sizes (log2)
system.mem_ctrls0.readPktSize::1                    0                       # Read request sizes (log2)
system.mem_ctrls0.readPktSize::2                    0                       # Read request sizes (log2)
system.mem_ctrls0.readPktSize::3                    0                       # Read request sizes (log2)
system.mem_ctrls0.readPktSize::4                    0                       # Read request sizes (log2)
system.mem_ctrls0.readPktSize::5                    0                       # Read request sizes (log2)
system.mem_ctrls0.readPktSize::6               132544                       # Read request sizes (log2)
system.mem_ctrls0.writePktSize::0                   0                       # Write request sizes (log2)
system.mem_ctrls0.writePktSize::1                   0                       # Write request sizes (log2)
system.mem_ctrls0.writePktSize::2                   0                       # Write request sizes (log2)
system.mem_ctrls0.writePktSize::3                   0                       # Write request sizes (log2)
system.mem_ctrls0.writePktSize::4                   0                       # Write request sizes (log2)
system.mem_ctrls0.writePktSize::5                   0                       # Write request sizes (log2)
system.mem_ctrls0.writePktSize::6               19115                       # Write request sizes (log2)
system.mem_ctrls0.rdQLenPdf::0                  66031                       # What read queue length does an incoming req see
system.mem_ctrls0.rdQLenPdf::1                  33209                       # What read queue length does an incoming req see
system.mem_ctrls0.rdQLenPdf::2                  16724                       # What read queue length does an incoming req see
system.mem_ctrls0.rdQLenPdf::3                   8850                       # What read queue length does an incoming req see
system.mem_ctrls0.rdQLenPdf::4                   4442                       # What read queue length does an incoming req see
system.mem_ctrls0.rdQLenPdf::5                   2029                       # What read queue length does an incoming req see
system.mem_ctrls0.rdQLenPdf::6                    843                       # What read queue length does an incoming req see
system.mem_ctrls0.rdQLenPdf::7                    300                       # What read queue length does an incoming req see
system.mem_ctrls0.rdQLenPdf::8                     92                       # What read queue length does an incoming req see
system.mem_ctrls0.rdQLenPdf::9                     18                       # What read queue length does an incoming req see
system.mem_ctrls0.rdQLenPdf::10                     2                       # What read queue length does an incoming req see
system.mem_ctrls0.rdQLenPdf::11                     0                       # What read queue length does an incoming req see
system.mem_ctrls0.rdQLenPdf::12                     0                       # What read queue length does an incoming req see
system.mem_ctrls0.rdQLenPdf::13                     0                       # What read queue length does an incoming req see
system.mem_ctrls0.rdQLenPdf::14                     0                       # What read queue length does an incoming req see
system.mem_ctrls0.rdQLenPdf::15                     0                       # What read queue length does an incoming req see
system.mem_ctrls0.rdQLenPdf::16                     0                       # What read queue length does an incoming req see
system.mem_ctrls0.rdQLenPdf::17                     0                       # What read queue length does an incoming req see
system.mem_ctrls0.rdQLenPdf::18                     0                       # What read queue length does an incoming req see
system.mem_ctrls0.rdQLenPdf::19                     0                       # What read queue length does an incoming req see
system.mem_ctrls0.rdQLenPdf::20                     0                       # What read queue length does an incoming req see
system.mem_ctrls0.rdQLenPdf::21                     0                       # What read queue length does an incoming req see
system.mem_ctrls0.rdQLenPdf::22                     0                       # What read queue length does an incoming req see
system.mem_ctrls0.rdQLenPdf::23                     0                       # What read queue length does an incoming req see
system.mem_ctrls0.rdQLenPdf::24                     0                       # What read queue length does an incoming req see
system.mem_ctrls0.rdQLenPdf::25                     0                       # What read queue length does an incoming req see
system.mem_ctrls0.rdQLenPdf::26                     0                       # What read queue length does an incoming req see
system.mem_ctrls0.rdQLenPdf::27                     0                       # What read queue length does an incoming req see
system.mem_ctrls0.rdQLenPdf::28                     0                       # What read queue length does an incoming req see
system.mem_ctrls0.rdQLenPdf::29                     0                       # What read queue length does an incoming req see
system.mem_ctrls0.rdQLenPdf::30                     0                       # What read queue length does an incoming req see
system.mem_ctrls0.rdQLenPdf::31                     0                       # What read queue length does an incoming req see
system.mem_ctrls0.wrQLenPdf::0                      1                       # What write queue length does an incoming req see
system.mem_ctrls0.wrQLenPdf::1                      1                       # What write queue length does an incoming req see
system.mem_ctrls0.wrQLenPdf::2                      1                       # What write queue length does an incoming req see
system.mem_ctrls0.wrQLenPdf::3                      1                       # What write queue length does an incoming req see
system.mem_ctrls0.wrQLenPdf::4                      1                       # What write queue length does an incoming req see
system.mem_ctrls0.wrQLenPdf::5                      1                       # What write queue length does an incoming req see
system.mem_ctrls0.wrQLenPdf::6                      1                       # What write queue length does an incoming req see
system.mem_ctrls0.wrQLenPdf::7                      1                       # What write queue length does an incoming req see
system.mem_ctrls0.wrQLenPdf::8                      1                       # What write queue length does an incoming req see
system.mem_ctrls0.wrQLenPdf::9                      1                       # What write queue length does an incoming req see
system.mem_ctrls0.wrQLenPdf::10                     1                       # What write queue length does an incoming req see
system.mem_ctrls0.wrQLenPdf::11                     1                       # What write queue length does an incoming req see
system.mem_ctrls0.wrQLenPdf::12                     1                       # What write queue length does an incoming req see
system.mem_ctrls0.wrQLenPdf::13                     1                       # What write queue length does an incoming req see
system.mem_ctrls0.wrQLenPdf::14                     1                       # What write queue length does an incoming req see
system.mem_ctrls0.wrQLenPdf::15                   486                       # What write queue length does an incoming req see
system.mem_ctrls0.wrQLenPdf::16                   524                       # What write queue length does an incoming req see
system.mem_ctrls0.wrQLenPdf::17                   850                       # What write queue length does an incoming req see
system.mem_ctrls0.wrQLenPdf::18                  1085                       # What write queue length does an incoming req see
system.mem_ctrls0.wrQLenPdf::19                  1149                       # What write queue length does an incoming req see
system.mem_ctrls0.wrQLenPdf::20                  1156                       # What write queue length does an incoming req see
system.mem_ctrls0.wrQLenPdf::21                  1165                       # What write queue length does an incoming req see
system.mem_ctrls0.wrQLenPdf::22                  1157                       # What write queue length does an incoming req see
system.mem_ctrls0.wrQLenPdf::23                  1161                       # What write queue length does an incoming req see
system.mem_ctrls0.wrQLenPdf::24                  1146                       # What write queue length does an incoming req see
system.mem_ctrls0.wrQLenPdf::25                  1149                       # What write queue length does an incoming req see
system.mem_ctrls0.wrQLenPdf::26                  1157                       # What write queue length does an incoming req see
system.mem_ctrls0.wrQLenPdf::27                  1157                       # What write queue length does an incoming req see
system.mem_ctrls0.wrQLenPdf::28                  1166                       # What write queue length does an incoming req see
system.mem_ctrls0.wrQLenPdf::29                  1165                       # What write queue length does an incoming req see
system.mem_ctrls0.wrQLenPdf::30                  1158                       # What write queue length does an incoming req see
system.mem_ctrls0.wrQLenPdf::31                  1129                       # What write queue length does an incoming req see
system.mem_ctrls0.wrQLenPdf::32                  1126                       # What write queue length does an incoming req see
system.mem_ctrls0.wrQLenPdf::33                    10                       # What write queue length does an incoming req see
system.mem_ctrls0.wrQLenPdf::34                     3                       # What write queue length does an incoming req see
system.mem_ctrls0.wrQLenPdf::35                     1                       # What write queue length does an incoming req see
system.mem_ctrls0.wrQLenPdf::36                     0                       # What write queue length does an incoming req see
system.mem_ctrls0.wrQLenPdf::37                     0                       # What write queue length does an incoming req see
system.mem_ctrls0.wrQLenPdf::38                     0                       # What write queue length does an incoming req see
system.mem_ctrls0.wrQLenPdf::39                     0                       # What write queue length does an incoming req see
system.mem_ctrls0.wrQLenPdf::40                     0                       # What write queue length does an incoming req see
system.mem_ctrls0.wrQLenPdf::41                     0                       # What write queue length does an incoming req see
system.mem_ctrls0.wrQLenPdf::42                     0                       # What write queue length does an incoming req see
system.mem_ctrls0.wrQLenPdf::43                     0                       # What write queue length does an incoming req see
system.mem_ctrls0.wrQLenPdf::44                     0                       # What write queue length does an incoming req see
system.mem_ctrls0.wrQLenPdf::45                     0                       # What write queue length does an incoming req see
system.mem_ctrls0.wrQLenPdf::46                     0                       # What write queue length does an incoming req see
system.mem_ctrls0.wrQLenPdf::47                     0                       # What write queue length does an incoming req see
system.mem_ctrls0.wrQLenPdf::48                     0                       # What write queue length does an incoming req see
system.mem_ctrls0.wrQLenPdf::49                     0                       # What write queue length does an incoming req see
system.mem_ctrls0.wrQLenPdf::50                     0                       # What write queue length does an incoming req see
system.mem_ctrls0.wrQLenPdf::51                     0                       # What write queue length does an incoming req see
system.mem_ctrls0.wrQLenPdf::52                     0                       # What write queue length does an incoming req see
system.mem_ctrls0.wrQLenPdf::53                     0                       # What write queue length does an incoming req see
system.mem_ctrls0.wrQLenPdf::54                     0                       # What write queue length does an incoming req see
system.mem_ctrls0.wrQLenPdf::55                     0                       # What write queue length does an incoming req see
system.mem_ctrls0.wrQLenPdf::56                     0                       # What write queue length does an incoming req see
system.mem_ctrls0.wrQLenPdf::57                     0                       # What write queue length does an incoming req see
system.mem_ctrls0.wrQLenPdf::58                     0                       # What write queue length does an incoming req see
system.mem_ctrls0.wrQLenPdf::59                     0                       # What write queue length does an incoming req see
system.mem_ctrls0.wrQLenPdf::60                     0                       # What write queue length does an incoming req see
system.mem_ctrls0.wrQLenPdf::61                     0                       # What write queue length does an incoming req see
system.mem_ctrls0.wrQLenPdf::62                     0                       # What write queue length does an incoming req see
system.mem_ctrls0.wrQLenPdf::63                     0                       # What write queue length does an incoming req see
system.mem_ctrls0.bytesPerActivate::samples        84313                       # Bytes accessed per row activation
system.mem_ctrls0.bytesPerActivate::mean   115.101016                       # Bytes accessed per row activation
system.mem_ctrls0.bytesPerActivate::gmean    88.548118                       # Bytes accessed per row activation
system.mem_ctrls0.bytesPerActivate::stdev   128.897907                       # Bytes accessed per row activation
system.mem_ctrls0.bytesPerActivate::0-127        60009     71.17%     71.17% # Bytes accessed per row activation
system.mem_ctrls0.bytesPerActivate::128-255        16094     19.09%     90.26% # Bytes accessed per row activation
system.mem_ctrls0.bytesPerActivate::256-383         3470      4.12%     94.38% # Bytes accessed per row activation
system.mem_ctrls0.bytesPerActivate::384-511         1939      2.30%     96.68% # Bytes accessed per row activation
system.mem_ctrls0.bytesPerActivate::512-639         1128      1.34%     98.02% # Bytes accessed per row activation
system.mem_ctrls0.bytesPerActivate::640-767         1030      1.22%     99.24% # Bytes accessed per row activation
system.mem_ctrls0.bytesPerActivate::768-895          107      0.13%     99.36% # Bytes accessed per row activation
system.mem_ctrls0.bytesPerActivate::896-1023          101      0.12%     99.48% # Bytes accessed per row activation
system.mem_ctrls0.bytesPerActivate::1024-1151          435      0.52%    100.00% # Bytes accessed per row activation
system.mem_ctrls0.bytesPerActivate::total        84313                       # Bytes accessed per row activation
system.mem_ctrls0.rdPerTurnAround::samples         1124                       # Reads before turning the bus around for writes
system.mem_ctrls0.rdPerTurnAround::mean    117.917260                       # Reads before turning the bus around for writes
system.mem_ctrls0.rdPerTurnAround::gmean    33.120380                       # Reads before turning the bus around for writes
system.mem_ctrls0.rdPerTurnAround::stdev  2054.579591                       # Reads before turning the bus around for writes
system.mem_ctrls0.rdPerTurnAround::0-4095         1123     99.91%     99.91% # Reads before turning the bus around for writes
system.mem_ctrls0.rdPerTurnAround::65536-69631            1      0.09%    100.00% # Reads before turning the bus around for writes
system.mem_ctrls0.rdPerTurnAround::total         1124                       # Reads before turning the bus around for writes
system.mem_ctrls0.wrPerTurnAround::samples         1124                       # Writes before turning the bus around for reads
system.mem_ctrls0.wrPerTurnAround::mean     16.990214                       # Writes before turning the bus around for reads
system.mem_ctrls0.wrPerTurnAround::gmean    16.954898                       # Writes before turning the bus around for reads
system.mem_ctrls0.wrPerTurnAround::stdev     1.105677                       # Writes before turning the bus around for reads
system.mem_ctrls0.wrPerTurnAround::16             591     52.58%     52.58% # Writes before turning the bus around for reads
system.mem_ctrls0.wrPerTurnAround::17              43      3.83%     56.41% # Writes before turning the bus around for reads
system.mem_ctrls0.wrPerTurnAround::18             411     36.57%     92.97% # Writes before turning the bus around for reads
system.mem_ctrls0.wrPerTurnAround::19              68      6.05%     99.02% # Writes before turning the bus around for reads
system.mem_ctrls0.wrPerTurnAround::20              11      0.98%    100.00% # Writes before turning the bus around for reads
system.mem_ctrls0.wrPerTurnAround::total         1124                       # Writes before turning the bus around for reads
system.mem_ctrls0.totQLat                  3712712000                       # Total ticks spent queuing
system.mem_ctrls0.totMemAccLat             6197837000                       # Total ticks spent from burst creation until serviced by the DRAM
system.mem_ctrls0.totBusLat                 662700000                       # Total ticks spent in databus transfers
system.mem_ctrls0.avgQLat                    28012.01                       # Average queueing delay per DRAM burst
system.mem_ctrls0.avgBusLat                   5000.00                       # Average bus latency per DRAM burst
system.mem_ctrls0.avgMemAccLat               46762.01                       # Average memory access latency per DRAM burst
system.mem_ctrls0.avgRdBW                      635.24                       # Average DRAM read bandwidth in MiByte/s
system.mem_ctrls0.avgWrBW                       91.53                       # Average achieved write bandwidth in MiByte/s
system.mem_ctrls0.avgRdBWSys                   635.26                       # Average system read bandwidth in MiByte/s
system.mem_ctrls0.avgWrBWSys                    91.61                       # Average system write bandwidth in MiByte/s
system.mem_ctrls0.peakBW                     12800.00                       # Theoretical peak bandwidth in MiByte/s
system.mem_ctrls0.busUtil                        5.68                       # Data bus utilization in percentage
system.mem_ctrls0.busUtilRead                    4.96                       # Data bus utilization in percentage for reads
system.mem_ctrls0.busUtilWrite                   0.72                       # Data bus utilization in percentage for writes
system.mem_ctrls0.avgRdQLen                      1.52                       # Average read queue length when enqueuing
system.mem_ctrls0.avgWrQLen                     10.42                       # Average write queue length when enqueuing
system.mem_ctrls0.readRowHits                   61501                       # Number of row buffer hits during reads
system.mem_ctrls0.writeRowHits                   5819                       # Number of row buffer hits during writes
system.mem_ctrls0.readRowHitRate                46.40                       # Row buffer hit rate for reads
system.mem_ctrls0.writeRowHitRate               30.44                       # Row buffer hit rate for writes
system.mem_ctrls0.avgGap                     88042.14                       # Average gap between requests
system.mem_ctrls0.pageHitRate                   44.39                       # Row buffer hit rate, read and write combined
system.mem_ctrls0_0.actEnergy               294667800                       # Energy for activate commands per rank (pJ)
system.mem_ctrls0_0.preEnergy               156612060                       # Energy for precharge commands per rank (pJ)
system.mem_ctrls0_0.readEnergy              465435180                       # Energy for read commands per rank (pJ)
system.mem_ctrls0_0.writeEnergy              49522140                       # Energy for write commands per rank (pJ)
system.mem_ctrls0_0.refreshEnergy        1059639360.000000                       # Energy for refresh commands per rank (pJ)
system.mem_ctrls0_0.actBackEnergy          1367857500                       # Energy for active background per rank (pJ)
system.mem_ctrls0_0.preBackEnergy            26186400                       # Energy for precharge background per rank (pJ)
system.mem_ctrls0_0.actPowerDownEnergy     4307769870                       # Energy for active power-down per rank (pJ)
system.mem_ctrls0_0.prePowerDownEnergy      295782240                       # Energy for precharge power-down per rank (pJ)
system.mem_ctrls0_0.selfRefreshEnergy        27542415                       # Energy for self refresh per rank (pJ)
system.mem_ctrls0_0.totalEnergy            8051237145                       # Total energy per rank (pJ)
system.mem_ctrls0_0.averagePower           602.935989                       # Core power per rank (mW)
system.mem_ctrls0_0.totalIdleTime         10285621250                       # Total Idle time Per DRAM Rank
system.mem_ctrls0_0.memoryStateTime::IDLE     14886000                       # Time in different power states
system.mem_ctrls0_0.memoryStateTime::REF    448360000                       # Time in different power states
system.mem_ctrls0_0.memoryStateTime::SREF     67885250                       # Time in different power states
system.mem_ctrls0_0.memoryStateTime::PRE_PDN    770047250                       # Time in different power states
system.mem_ctrls0_0.memoryStateTime::ACT   2604518750                       # Time in different power states
system.mem_ctrls0_0.memoryStateTime::ACT_PDN   9447688750                       # Time in different power states
system.mem_ctrls0_1.actEnergy               307355580                       # Energy for activate commands per rank (pJ)
system.mem_ctrls0_1.preEnergy               163355775                       # Energy for precharge commands per rank (pJ)
system.mem_ctrls0_1.readEnergy              480900420                       # Energy for read commands per rank (pJ)
system.mem_ctrls0_1.writeEnergy              50164200                       # Energy for write commands per rank (pJ)
system.mem_ctrls0_1.refreshEnergy        1060254000.000000                       # Energy for refresh commands per rank (pJ)
system.mem_ctrls0_1.actBackEnergy          1377366240                       # Energy for active background per rank (pJ)
system.mem_ctrls0_1.preBackEnergy            25862880                       # Energy for precharge background per rank (pJ)
system.mem_ctrls0_1.actPowerDownEnergy     4357969770                       # Energy for active power-down per rank (pJ)
system.mem_ctrls0_1.prePowerDownEnergy      255221760                       # Energy for precharge power-down per rank (pJ)
system.mem_ctrls0_1.selfRefreshEnergy        19983390                       # Energy for self refresh per rank (pJ)
system.mem_ctrls0_1.totalEnergy            8098608165                       # Total energy per rank (pJ)
system.mem_ctrls0_1.averagePower           606.483480                       # Core power per rank (mW)
system.mem_ctrls0_1.totalIdleTime         10264720500                       # Total Idle time Per DRAM Rank
system.mem_ctrls0_1.memoryStateTime::IDLE     14364000                       # Time in different power states
system.mem_ctrls0_1.memoryStateTime::REF    448602000                       # Time in different power states
system.mem_ctrls0_1.memoryStateTime::SREF     43519500                       # Time in different power states
system.mem_ctrls0_1.memoryStateTime::PRE_PDN    664428750                       # Time in different power states
system.mem_ctrls0_1.memoryStateTime::ACT   2624864750                       # Time in different power states
system.mem_ctrls0_1.memoryStateTime::ACT_PDN   9557607000                       # Time in different power states
system.mem_ctrls1.pwrStateResidencyTicks::UNDEFINED  13353386000                       # Cumulative time (in ticks) in various power states
system.mem_ctrls1.bytes_read::ruby.dir_cntrl1      8562176                       # Number of bytes read from this memory
system.mem_ctrls1.bytes_read::total           8562176                       # Number of bytes read from this memory
system.mem_ctrls1.bytes_written::ruby.dir_cntrl1      1251456                       # Number of bytes written to this memory
system.mem_ctrls1.bytes_written::total        1251456                       # Number of bytes written to this memory
system.mem_ctrls1.num_reads::ruby.dir_cntrl1       133784                       # Number of read requests responded to by this memory
system.mem_ctrls1.num_reads::total             133784                       # Number of read requests responded to by this memory
system.mem_ctrls1.num_writes::ruby.dir_cntrl1        19554                       # Number of write requests responded to by this memory
system.mem_ctrls1.num_writes::total             19554                       # Number of write requests responded to by this memory
system.mem_ctrls1.bw_read::ruby.dir_cntrl1    641198869                       # Total read bandwidth from this memory (bytes/s)
system.mem_ctrls1.bw_read::total            641198869                       # Total read bandwidth from this memory (bytes/s)
system.mem_ctrls1.bw_write::ruby.dir_cntrl1     93718252                       # Write bandwidth from this memory (bytes/s)
system.mem_ctrls1.bw_write::total            93718252                       # Write bandwidth from this memory (bytes/s)
system.mem_ctrls1.bw_total::ruby.dir_cntrl1    734917121                       # Total bandwidth to/from this memory (bytes/s)
system.mem_ctrls1.bw_total::total           734917121                       # Total bandwidth to/from this memory (bytes/s)
system.mem_ctrls1.readReqs                     133784                       # Number of read requests accepted
system.mem_ctrls1.avgNetLat                      0.00                       # Average network latency to DRAM controller
system.mem_ctrls1.writeReqs                     19554                       # Number of write requests accepted
system.mem_ctrls1.readBursts                   133784                       # Number of DRAM read bursts, including those serviced by the write queue
system.mem_ctrls1.writeBursts                   19554                       # Number of DRAM write bursts, including those merged in the write queue
system.mem_ctrls1.bytesReadDRAM               8561472                       # Total number of bytes read from DRAM
system.mem_ctrls1.bytesReadWrQ                    704                       # Total number of bytes read from write queue
system.mem_ctrls1.bytesWritten                1249856                       # Total number of bytes written to DRAM
system.mem_ctrls1.bytesReadSys                8562176                       # Total read bytes from the system interface side
system.mem_ctrls1.bytesWrittenSys             1251456                       # Total written bytes from the system interface side
system.mem_ctrls1.servicedByWrQ                    11                       # Number of DRAM read bursts serviced by the write queue
system.mem_ctrls1.mergedWrBursts                    0                       # Number of DRAM write bursts merged with an existing one
system.mem_ctrls1.neitherReadNorWriteReqs            0                       # Number of requests that are neither read nor write
system.mem_ctrls1.perBankRdBursts::0             8067                       # Per bank write bursts
system.mem_ctrls1.perBankRdBursts::1             7833                       # Per bank write bursts
system.mem_ctrls1.perBankRdBursts::2             8176                       # Per bank write bursts
system.mem_ctrls1.perBankRdBursts::3             8336                       # Per bank write bursts
system.mem_ctrls1.perBankRdBursts::4             8315                       # Per bank write bursts
system.mem_ctrls1.perBankRdBursts::5             8411                       # Per bank write bursts
system.mem_ctrls1.perBankRdBursts::6             8469                       # Per bank write bursts
system.mem_ctrls1.perBankRdBursts::7             8244                       # Per bank write bursts
system.mem_ctrls1.perBankRdBursts::8             8588                       # Per bank write bursts
system.mem_ctrls1.perBankRdBursts::9             8814                       # Per bank write bursts
system.mem_ctrls1.perBankRdBursts::10            9121                       # Per bank write bursts
system.mem_ctrls1.perBankRdBursts::11            8921                       # Per bank write bursts
system.mem_ctrls1.perBankRdBursts::12            8498                       # Per bank write bursts
system.mem_ctrls1.perBankRdBursts::13            8124                       # Per bank write bursts
system.mem_ctrls1.perBankRdBursts::14            7963                       # Per bank write bursts
system.mem_ctrls1.perBankRdBursts::15            7893                       # Per bank write bursts
system.mem_ctrls1.perBankWrBursts::0             1197                       # Per bank write bursts
system.mem_ctrls1.perBankWrBursts::1             1312                       # Per bank write bursts
system.mem_ctrls1.perBankWrBursts::2             1332                       # Per bank write bursts
system.mem_ctrls1.perBankWrBursts::3             1164                       # Per bank write bursts
system.mem_ctrls1.perBankWrBursts::4             1280                       # Per bank write bursts
system.mem_ctrls1.perBankWrBursts::5             1223                       # Per bank write bursts
system.mem_ctrls1.perBankWrBursts::6             1138                       # Per bank write bursts
system.mem_ctrls1.perBankWrBursts::7             1141                       # Per bank write bursts
system.mem_ctrls1.perBankWrBursts::8             1182                       # Per bank write bursts
system.mem_ctrls1.perBankWrBursts::9             1238                       # Per bank write bursts
system.mem_ctrls1.perBankWrBursts::10            1263                       # Per bank write bursts
system.mem_ctrls1.perBankWrBursts::11            1339                       # Per bank write bursts
system.mem_ctrls1.perBankWrBursts::12            1180                       # Per bank write bursts
system.mem_ctrls1.perBankWrBursts::13            1141                       # Per bank write bursts
system.mem_ctrls1.perBankWrBursts::14            1243                       # Per bank write bursts
system.mem_ctrls1.perBankWrBursts::15            1156                       # Per bank write bursts
system.mem_ctrls1.numRdRetry                        0                       # Number of times read queue was full causing retry
system.mem_ctrls1.numWrRetry                        0                       # Number of times write queue was full causing retry
system.mem_ctrls1.totGap                  13352883500                       # Total gap between requests
system.mem_ctrls1.readPktSize::0                    0                       # Read request sizes (log2)
system.mem_ctrls1.readPktSize::1                    0                       # Read request sizes (log2)
system.mem_ctrls1.readPktSize::2                    0                       # Read request sizes (log2)
system.mem_ctrls1.readPktSize::3                    0                       # Read request sizes (log2)
system.mem_ctrls1.readPktSize::4                    0                       # Read request sizes (log2)
system.mem_ctrls1.readPktSize::5                    0                       # Read request sizes (log2)
system.mem_ctrls1.readPktSize::6               133784                       # Read request sizes (log2)
system.mem_ctrls1.writePktSize::0                   0                       # Write request sizes (log2)
system.mem_ctrls1.writePktSize::1                   0                       # Write request sizes (log2)
system.mem_ctrls1.writePktSize::2                   0                       # Write request sizes (log2)
system.mem_ctrls1.writePktSize::3                   0                       # Write request sizes (log2)
system.mem_ctrls1.writePktSize::4                   0                       # Write request sizes (log2)
system.mem_ctrls1.writePktSize::5                   0                       # Write request sizes (log2)
system.mem_ctrls1.writePktSize::6               19554                       # Write request sizes (log2)
system.mem_ctrls1.rdQLenPdf::0                  65109                       # What read queue length does an incoming req see
system.mem_ctrls1.rdQLenPdf::1                  33484                       # What read queue length does an incoming req see
system.mem_ctrls1.rdQLenPdf::2                  17366                       # What read queue length does an incoming req see
system.mem_ctrls1.rdQLenPdf::3                   9290                       # What read queue length does an incoming req see
system.mem_ctrls1.rdQLenPdf::4                   4786                       # What read queue length does an incoming req see
system.mem_ctrls1.rdQLenPdf::5                   2280                       # What read queue length does an incoming req see
system.mem_ctrls1.rdQLenPdf::6                    969                       # What read queue length does an incoming req see
system.mem_ctrls1.rdQLenPdf::7                    339                       # What read queue length does an incoming req see
system.mem_ctrls1.rdQLenPdf::8                    123                       # What read queue length does an incoming req see
system.mem_ctrls1.rdQLenPdf::9                     26                       # What read queue length does an incoming req see
system.mem_ctrls1.rdQLenPdf::10                     1                       # What read queue length does an incoming req see
system.mem_ctrls1.rdQLenPdf::11                     0                       # What read queue length does an incoming req see
system.mem_ctrls1.rdQLenPdf::12                     0                       # What read queue length does an incoming req see
system.mem_ctrls1.rdQLenPdf::13                     0                       # What read queue length does an incoming req see
system.mem_ctrls1.rdQLenPdf::14                     0                       # What read queue length does an incoming req see
system.mem_ctrls1.rdQLenPdf::15                     0                       # What read queue length does an incoming req see
system.mem_ctrls1.rdQLenPdf::16                     0                       # What read queue length does an incoming req see
system.mem_ctrls1.rdQLenPdf::17                     0                       # What read queue length does an incoming req see
system.mem_ctrls1.rdQLenPdf::18                     0                       # What read queue length does an incoming req see
system.mem_ctrls1.rdQLenPdf::19                     0                       # What read queue length does an incoming req see
system.mem_ctrls1.rdQLenPdf::20                     0                       # What read queue length does an incoming req see
system.mem_ctrls1.rdQLenPdf::21                     0                       # What read queue length does an incoming req see
system.mem_ctrls1.rdQLenPdf::22                     0                       # What read queue length does an incoming req see
system.mem_ctrls1.rdQLenPdf::23                     0                       # What read queue length does an incoming req see
system.mem_ctrls1.rdQLenPdf::24                     0                       # What read queue length does an incoming req see
system.mem_ctrls1.rdQLenPdf::25                     0                       # What read queue length does an incoming req see
system.mem_ctrls1.rdQLenPdf::26                     0                       # What read queue length does an incoming req see
system.mem_ctrls1.rdQLenPdf::27                     0                       # What read queue length does an incoming req see
system.mem_ctrls1.rdQLenPdf::28                     0                       # What read queue length does an incoming req see
system.mem_ctrls1.rdQLenPdf::29                     0                       # What read queue length does an incoming req see
system.mem_ctrls1.rdQLenPdf::30                     0                       # What read queue length does an incoming req see
system.mem_ctrls1.rdQLenPdf::31                     0                       # What read queue length does an incoming req see
system.mem_ctrls1.wrQLenPdf::0                      1                       # What write queue length does an incoming req see
system.mem_ctrls1.wrQLenPdf::1                      1                       # What write queue length does an incoming req see
system.mem_ctrls1.wrQLenPdf::2                      1                       # What write queue length does an incoming req see
system.mem_ctrls1.wrQLenPdf::3                      1                       # What write queue length does an incoming req see
system.mem_ctrls1.wrQLenPdf::4                      1                       # What write queue length does an incoming req see
system.mem_ctrls1.wrQLenPdf::5                      1                       # What write queue length does an incoming req see
system.mem_ctrls1.wrQLenPdf::6                      1                       # What write queue length does an incoming req see
system.mem_ctrls1.wrQLenPdf::7                      1                       # What write queue length does an incoming req see
system.mem_ctrls1.wrQLenPdf::8                      1                       # What write queue length does an incoming req see
system.mem_ctrls1.wrQLenPdf::9                      1                       # What write queue length does an incoming req see
system.mem_ctrls1.wrQLenPdf::10                     1                       # What write queue length does an incoming req see
system.mem_ctrls1.wrQLenPdf::11                     1                       # What write queue length does an incoming req see
system.mem_ctrls1.wrQLenPdf::12                     1                       # What write queue length does an incoming req see
system.mem_ctrls1.wrQLenPdf::13                     1                       # What write queue length does an incoming req see
system.mem_ctrls1.wrQLenPdf::14                     1                       # What write queue length does an incoming req see
system.mem_ctrls1.wrQLenPdf::15                   466                       # What write queue length does an incoming req see
system.mem_ctrls1.wrQLenPdf::16                   521                       # What write queue length does an incoming req see
system.mem_ctrls1.wrQLenPdf::17                   850                       # What write queue length does an incoming req see
system.mem_ctrls1.wrQLenPdf::18                  1095                       # What write queue length does an incoming req see
system.mem_ctrls1.wrQLenPdf::19                  1176                       # What write queue length does an incoming req see
system.mem_ctrls1.wrQLenPdf::20                  1183                       # What write queue length does an incoming req see
system.mem_ctrls1.wrQLenPdf::21                  1201                       # What write queue length does an incoming req see
system.mem_ctrls1.wrQLenPdf::22                  1194                       # What write queue length does an incoming req see
system.mem_ctrls1.wrQLenPdf::23                  1197                       # What write queue length does an incoming req see
system.mem_ctrls1.wrQLenPdf::24                  1189                       # What write queue length does an incoming req see
system.mem_ctrls1.wrQLenPdf::25                  1193                       # What write queue length does an incoming req see
system.mem_ctrls1.wrQLenPdf::26                  1183                       # What write queue length does an incoming req see
system.mem_ctrls1.wrQLenPdf::27                  1199                       # What write queue length does an incoming req see
system.mem_ctrls1.wrQLenPdf::28                  1192                       # What write queue length does an incoming req see
system.mem_ctrls1.wrQLenPdf::29                  1187                       # What write queue length does an incoming req see
system.mem_ctrls1.wrQLenPdf::30                  1171                       # What write queue length does an incoming req see
system.mem_ctrls1.wrQLenPdf::31                  1161                       # What write queue length does an incoming req see
system.mem_ctrls1.wrQLenPdf::32                  1156                       # What write queue length does an incoming req see
system.mem_ctrls1.wrQLenPdf::33                    19                       # What write queue length does an incoming req see
system.mem_ctrls1.wrQLenPdf::34                     4                       # What write queue length does an incoming req see
system.mem_ctrls1.wrQLenPdf::35                     1                       # What write queue length does an incoming req see
system.mem_ctrls1.wrQLenPdf::36                     1                       # What write queue length does an incoming req see
system.mem_ctrls1.wrQLenPdf::37                     0                       # What write queue length does an incoming req see
system.mem_ctrls1.wrQLenPdf::38                     0                       # What write queue length does an incoming req see
system.mem_ctrls1.wrQLenPdf::39                     0                       # What write queue length does an incoming req see
system.mem_ctrls1.wrQLenPdf::40                     0                       # What write queue length does an incoming req see
system.mem_ctrls1.wrQLenPdf::41                     0                       # What write queue length does an incoming req see
system.mem_ctrls1.wrQLenPdf::42                     0                       # What write queue length does an incoming req see
system.mem_ctrls1.wrQLenPdf::43                     0                       # What write queue length does an incoming req see
system.mem_ctrls1.wrQLenPdf::44                     0                       # What write queue length does an incoming req see
system.mem_ctrls1.wrQLenPdf::45                     0                       # What write queue length does an incoming req see
system.mem_ctrls1.wrQLenPdf::46                     0                       # What write queue length does an incoming req see
system.mem_ctrls1.wrQLenPdf::47                     0                       # What write queue length does an incoming req see
system.mem_ctrls1.wrQLenPdf::48                     0                       # What write queue length does an incoming req see
system.mem_ctrls1.wrQLenPdf::49                     0                       # What write queue length does an incoming req see
system.mem_ctrls1.wrQLenPdf::50                     0                       # What write queue length does an incoming req see
system.mem_ctrls1.wrQLenPdf::51                     0                       # What write queue length does an incoming req see
system.mem_ctrls1.wrQLenPdf::52                     0                       # What write queue length does an incoming req see
system.mem_ctrls1.wrQLenPdf::53                     0                       # What write queue length does an incoming req see
system.mem_ctrls1.wrQLenPdf::54                     0                       # What write queue length does an incoming req see
system.mem_ctrls1.wrQLenPdf::55                     0                       # What write queue length does an incoming req see
system.mem_ctrls1.wrQLenPdf::56                     0                       # What write queue length does an incoming req see
system.mem_ctrls1.wrQLenPdf::57                     0                       # What write queue length does an incoming req see
system.mem_ctrls1.wrQLenPdf::58                     0                       # What write queue length does an incoming req see
system.mem_ctrls1.wrQLenPdf::59                     0                       # What write queue length does an incoming req see
system.mem_ctrls1.wrQLenPdf::60                     0                       # What write queue length does an incoming req see
system.mem_ctrls1.wrQLenPdf::61                     0                       # What write queue length does an incoming req see
system.mem_ctrls1.wrQLenPdf::62                     0                       # What write queue length does an incoming req see
system.mem_ctrls1.wrQLenPdf::63                     0                       # What write queue length does an incoming req see
system.mem_ctrls1.bytesPerActivate::samples        86446                       # Bytes accessed per row activation
system.mem_ctrls1.bytesPerActivate::mean   113.490688                       # Bytes accessed per row activation
system.mem_ctrls1.bytesPerActivate::gmean    87.839407                       # Bytes accessed per row activation
system.mem_ctrls1.bytesPerActivate::stdev   126.165765                       # Bytes accessed per row activation
system.mem_ctrls1.bytesPerActivate::0-127        62050     71.78%     71.78% # Bytes accessed per row activation
system.mem_ctrls1.bytesPerActivate::128-255        16238     18.78%     90.56% # Bytes accessed per row activation
system.mem_ctrls1.bytesPerActivate::256-383         3542      4.10%     94.66% # Bytes accessed per row activation
system.mem_ctrls1.bytesPerActivate::384-511         1901      2.20%     96.86% # Bytes accessed per row activation
system.mem_ctrls1.bytesPerActivate::512-639         1072      1.24%     98.10% # Bytes accessed per row activation
system.mem_ctrls1.bytesPerActivate::640-767         1015      1.17%     99.27% # Bytes accessed per row activation
system.mem_ctrls1.bytesPerActivate::768-895          115      0.13%     99.41% # Bytes accessed per row activation
system.mem_ctrls1.bytesPerActivate::896-1023           97      0.11%     99.52% # Bytes accessed per row activation
system.mem_ctrls1.bytesPerActivate::1024-1151          416      0.48%    100.00% # Bytes accessed per row activation
system.mem_ctrls1.bytesPerActivate::total        86446                       # Bytes accessed per row activation
system.mem_ctrls1.rdPerTurnAround::samples         1152                       # Reads before turning the bus around for writes
system.mem_ctrls1.rdPerTurnAround::mean    116.109375                       # Reads before turning the bus around for writes
system.mem_ctrls1.rdPerTurnAround::gmean    32.362523                       # Reads before turning the bus around for writes
system.mem_ctrls1.rdPerTurnAround::stdev  2099.992936                       # Reads before turning the bus around for writes
system.mem_ctrls1.rdPerTurnAround::0-4095         1151     99.91%     99.91% # Reads before turning the bus around for writes
system.mem_ctrls1.rdPerTurnAround::69632-73727            1      0.09%    100.00% # Reads before turning the bus around for writes
system.mem_ctrls1.rdPerTurnAround::total         1152                       # Reads before turning the bus around for writes
system.mem_ctrls1.wrPerTurnAround::samples         1152                       # Writes before turning the bus around for reads
system.mem_ctrls1.wrPerTurnAround::mean     16.952257                       # Writes before turning the bus around for reads
system.mem_ctrls1.wrPerTurnAround::gmean    16.917386                       # Writes before turning the bus around for reads
system.mem_ctrls1.wrPerTurnAround::stdev     1.099077                       # Writes before turning the bus around for reads
system.mem_ctrls1.wrPerTurnAround::16             624     54.17%     54.17% # Writes before turning the bus around for reads
system.mem_ctrls1.wrPerTurnAround::17              48      4.17%     58.33% # Writes before turning the bus around for reads
system.mem_ctrls1.wrPerTurnAround::18             401     34.81%     93.14% # Writes before turning the bus around for reads
system.mem_ctrls1.wrPerTurnAround::19              70      6.08%     99.22% # Writes before turning the bus around for reads
system.mem_ctrls1.wrPerTurnAround::20               8      0.69%     99.91% # Writes before turning the bus around for reads
system.mem_ctrls1.wrPerTurnAround::21               1      0.09%    100.00% # Writes before turning the bus around for reads
system.mem_ctrls1.wrPerTurnAround::total         1152                       # Writes before turning the bus around for reads
system.mem_ctrls1.totQLat                  3910861750                       # Total ticks spent queuing
system.mem_ctrls1.totMemAccLat             6419105500                       # Total ticks spent from burst creation until serviced by the DRAM
system.mem_ctrls1.totBusLat                 668865000                       # Total ticks spent in databus transfers
system.mem_ctrls1.avgQLat                    29235.06                       # Average queueing delay per DRAM burst
system.mem_ctrls1.avgBusLat                   5000.00                       # Average bus latency per DRAM burst
system.mem_ctrls1.avgMemAccLat               47985.06                       # Average memory access latency per DRAM burst
system.mem_ctrls1.avgRdBW                      641.15                       # Average DRAM read bandwidth in MiByte/s
system.mem_ctrls1.avgWrBW                       93.60                       # Average achieved write bandwidth in MiByte/s
system.mem_ctrls1.avgRdBWSys                   641.20                       # Average system read bandwidth in MiByte/s
system.mem_ctrls1.avgWrBWSys                    93.72                       # Average system write bandwidth in MiByte/s
system.mem_ctrls1.peakBW                     12800.00                       # Theoretical peak bandwidth in MiByte/s
system.mem_ctrls1.busUtil                        5.74                       # Data bus utilization in percentage
system.mem_ctrls1.busUtilRead                    5.01                       # Data bus utilization in percentage for reads
system.mem_ctrls1.busUtilWrite                   0.73                       # Data bus utilization in percentage for writes
system.mem_ctrls1.avgRdQLen                      1.54                       # Average read queue length when enqueuing
system.mem_ctrls1.avgWrQLen                     10.24                       # Average write queue length when enqueuing
system.mem_ctrls1.readRowHits                   61002                       # Number of row buffer hits during reads
system.mem_ctrls1.writeRowHits                   5851                       # Number of row buffer hits during writes
system.mem_ctrls1.readRowHitRate                45.60                       # Row buffer hit rate for reads
system.mem_ctrls1.writeRowHitRate               29.92                       # Row buffer hit rate for writes
system.mem_ctrls1.avgGap                     87081.37                       # Average gap between requests
system.mem_ctrls1.pageHitRate                   43.60                       # Row buffer hit rate, read and write combined
system.mem_ctrls1_0.actEnergy               302528940                       # Energy for activate commands per rank (pJ)
system.mem_ctrls1_0.preEnergy               160797945                       # Energy for precharge commands per rank (pJ)
system.mem_ctrls1_0.readEnergy              470176140                       # Energy for read commands per rank (pJ)
system.mem_ctrls1_0.writeEnergy              51088140                       # Energy for write commands per rank (pJ)
system.mem_ctrls1_0.refreshEnergy        1057180800.000000                       # Energy for refresh commands per rank (pJ)
system.mem_ctrls1_0.actBackEnergy          1361684400                       # Energy for active background per rank (pJ)
system.mem_ctrls1_0.preBackEnergy            25892640                       # Energy for precharge background per rank (pJ)
system.mem_ctrls1_0.actPowerDownEnergy     4291436520                       # Energy for active power-down per rank (pJ)
system.mem_ctrls1_0.prePowerDownEnergy      311086080                       # Energy for precharge power-down per rank (pJ)
system.mem_ctrls1_0.selfRefreshEnergy        28291485                       # Energy for self refresh per rank (pJ)
system.mem_ctrls1_0.totalEnergy            8060266410                       # Total energy per rank (pJ)
system.mem_ctrls1_0.averagePower           603.612167                       # Core power per rank (mW)
system.mem_ctrls1_0.totalIdleTime         10294387250                       # Total Idle time Per DRAM Rank
system.mem_ctrls1_0.memoryStateTime::IDLE     13953750                       # Time in different power states
system.mem_ctrls1_0.memoryStateTime::REF    447314000                       # Time in different power states
system.mem_ctrls1_0.memoryStateTime::SREF     78411000                       # Time in different power states
system.mem_ctrls1_0.memoryStateTime::PRE_PDN    809888000                       # Time in different power states
system.mem_ctrls1_0.memoryStateTime::ACT   2592131500                       # Time in different power states
system.mem_ctrls1_0.memoryStateTime::ACT_PDN   9411687750                       # Time in different power states
system.mem_ctrls1_1.actEnergy               314716920                       # Energy for activate commands per rank (pJ)
system.mem_ctrls1_1.preEnergy               167264625                       # Energy for precharge commands per rank (pJ)
system.mem_ctrls1_1.readEnergy              484963080                       # Energy for read commands per rank (pJ)
system.mem_ctrls1_1.writeEnergy              50853240                       # Energy for write commands per rank (pJ)
system.mem_ctrls1_1.refreshEnergy        1058410080.000000                       # Energy for refresh commands per rank (pJ)
system.mem_ctrls1_1.actBackEnergy          1387016340                       # Energy for active background per rank (pJ)
system.mem_ctrls1_1.preBackEnergy            25481760                       # Energy for precharge background per rank (pJ)
system.mem_ctrls1_1.actPowerDownEnergy     4375436280                       # Energy for active power-down per rank (pJ)
system.mem_ctrls1_1.prePowerDownEnergy      224381280                       # Energy for precharge power-down per rank (pJ)
system.mem_ctrls1_1.selfRefreshEnergy        25224990                       # Energy for self refresh per rank (pJ)
system.mem_ctrls1_1.totalEnergy            8113850925                       # Total energy per rank (pJ)
system.mem_ctrls1_1.averagePower           607.624970                       # Core power per rank (mW)
system.mem_ctrls1_1.totalIdleTime         10244684750                       # Total Idle time Per DRAM Rank
system.mem_ctrls1_1.memoryStateTime::IDLE     13828000                       # Time in different power states
system.mem_ctrls1_1.memoryStateTime::REF    447828000                       # Time in different power states
system.mem_ctrls1_1.memoryStateTime::SREF     65516250                       # Time in different power states
system.mem_ctrls1_1.memoryStateTime::PRE_PDN    584136000                       # Time in different power states
system.mem_ctrls1_1.memoryStateTime::ACT   2646933750                       # Time in different power states
system.mem_ctrls1_1.memoryStateTime::ACT_PDN   9595144000                       # Time in different power states
system.mem_ctrls2.pwrStateResidencyTicks::UNDEFINED  13353386000                       # Cumulative time (in ticks) in various power states
system.mem_ctrls2.bytes_read::ruby.dir_cntrl2      8473728                       # Number of bytes read from this memory
system.mem_ctrls2.bytes_read::total           8473728                       # Number of bytes read from this memory
system.mem_ctrls2.bytes_written::ruby.dir_cntrl2      1224384                       # Number of bytes written to this memory
system.mem_ctrls2.bytes_written::total        1224384                       # Number of bytes written to this memory
system.mem_ctrls2.num_reads::ruby.dir_cntrl2       132402                       # Number of read requests responded to by this memory
system.mem_ctrls2.num_reads::total             132402                       # Number of read requests responded to by this memory
system.mem_ctrls2.num_writes::ruby.dir_cntrl2        19131                       # Number of write requests responded to by this memory
system.mem_ctrls2.num_writes::total             19131                       # Number of write requests responded to by this memory
system.mem_ctrls2.bw_read::ruby.dir_cntrl2    634575231                       # Total read bandwidth from this memory (bytes/s)
system.mem_ctrls2.bw_read::total            634575231                       # Total read bandwidth from this memory (bytes/s)
system.mem_ctrls2.bw_write::ruby.dir_cntrl2     91690901                       # Write bandwidth from this memory (bytes/s)
system.mem_ctrls2.bw_write::total            91690901                       # Write bandwidth from this memory (bytes/s)
system.mem_ctrls2.bw_total::ruby.dir_cntrl2    726266132                       # Total bandwidth to/from this memory (bytes/s)
system.mem_ctrls2.bw_total::total           726266132                       # Total bandwidth to/from this memory (bytes/s)
system.mem_ctrls2.readReqs                     132402                       # Number of read requests accepted
system.mem_ctrls2.avgNetLat                      0.00                       # Average network latency to DRAM controller
system.mem_ctrls2.writeReqs                     19131                       # Number of write requests accepted
system.mem_ctrls2.readBursts                   132402                       # Number of DRAM read bursts, including those serviced by the write queue
system.mem_ctrls2.writeBursts                   19131                       # Number of DRAM write bursts, including those merged in the write queue
system.mem_ctrls2.bytesReadDRAM               8473600                       # Total number of bytes read from DRAM
system.mem_ctrls2.bytesReadWrQ                    128                       # Total number of bytes read from write queue
system.mem_ctrls2.bytesWritten                1222912                       # Total number of bytes written to DRAM
system.mem_ctrls2.bytesReadSys                8473728                       # Total read bytes from the system interface side
system.mem_ctrls2.bytesWrittenSys             1224384                       # Total written bytes from the system interface side
system.mem_ctrls2.servicedByWrQ                     2                       # Number of DRAM read bursts serviced by the write queue
system.mem_ctrls2.mergedWrBursts                    0                       # Number of DRAM write bursts merged with an existing one
system.mem_ctrls2.neitherReadNorWriteReqs            0                       # Number of requests that are neither read nor write
system.mem_ctrls2.perBankRdBursts::0             7987                       # Per bank write bursts
system.mem_ctrls2.perBankRdBursts::1             7714                       # Per bank write bursts
system.mem_ctrls2.perBankRdBursts::2             8088                       # Per bank write bursts
system.mem_ctrls2.perBankRdBursts::3             8223                       # Per bank write bursts
system.mem_ctrls2.perBankRdBursts::4             8214                       # Per bank write bursts
system.mem_ctrls2.perBankRdBursts::5             8388                       # Per bank write bursts
system.mem_ctrls2.perBankRdBursts::6             8374                       # Per bank write bursts
system.mem_ctrls2.perBankRdBursts::7             8205                       # Per bank write bursts
system.mem_ctrls2.perBankRdBursts::8             8487                       # Per bank write bursts
system.mem_ctrls2.perBankRdBursts::9             8696                       # Per bank write bursts
system.mem_ctrls2.perBankRdBursts::10            9009                       # Per bank write bursts
system.mem_ctrls2.perBankRdBursts::11            8883                       # Per bank write bursts
system.mem_ctrls2.perBankRdBursts::12            8391                       # Per bank write bursts
system.mem_ctrls2.perBankRdBursts::13            8102                       # Per bank write bursts
system.mem_ctrls2.perBankRdBursts::14            7829                       # Per bank write bursts
system.mem_ctrls2.perBankRdBursts::15            7810                       # Per bank write bursts
system.mem_ctrls2.perBankWrBursts::0             1175                       # Per bank write bursts
system.mem_ctrls2.perBankWrBursts::1             1274                       # Per bank write bursts
system.mem_ctrls2.perBankWrBursts::2             1281                       # Per bank write bursts
system.mem_ctrls2.perBankWrBursts::3             1136                       # Per bank write bursts
system.mem_ctrls2.perBankWrBursts::4             1244                       # Per bank write bursts
system.mem_ctrls2.perBankWrBursts::5             1203                       # Per bank write bursts
system.mem_ctrls2.perBankWrBursts::6             1107                       # Per bank write bursts
system.mem_ctrls2.perBankWrBursts::7             1132                       # Per bank write bursts
system.mem_ctrls2.perBankWrBursts::8             1130                       # Per bank write bursts
system.mem_ctrls2.perBankWrBursts::9             1209                       # Per bank write bursts
system.mem_ctrls2.perBankWrBursts::10            1193                       # Per bank write bursts
system.mem_ctrls2.perBankWrBursts::11            1342                       # Per bank write bursts
system.mem_ctrls2.perBankWrBursts::12            1170                       # Per bank write bursts
system.mem_ctrls2.perBankWrBursts::13            1154                       # Per bank write bursts
system.mem_ctrls2.perBankWrBursts::14            1200                       # Per bank write bursts
system.mem_ctrls2.perBankWrBursts::15            1158                       # Per bank write bursts
system.mem_ctrls2.numRdRetry                        0                       # Number of times read queue was full causing retry
system.mem_ctrls2.numWrRetry                        0                       # Number of times write queue was full causing retry
system.mem_ctrls2.totGap                  13352515500                       # Total gap between requests
system.mem_ctrls2.readPktSize::0                    0                       # Read request sizes (log2)
system.mem_ctrls2.readPktSize::1                    0                       # Read request sizes (log2)
system.mem_ctrls2.readPktSize::2                    0                       # Read request sizes (log2)
system.mem_ctrls2.readPktSize::3                    0                       # Read request sizes (log2)
system.mem_ctrls2.readPktSize::4                    0                       # Read request sizes (log2)
system.mem_ctrls2.readPktSize::5                    0                       # Read request sizes (log2)
system.mem_ctrls2.readPktSize::6               132402                       # Read request sizes (log2)
system.mem_ctrls2.writePktSize::0                   0                       # Write request sizes (log2)
system.mem_ctrls2.writePktSize::1                   0                       # Write request sizes (log2)
system.mem_ctrls2.writePktSize::2                   0                       # Write request sizes (log2)
system.mem_ctrls2.writePktSize::3                   0                       # Write request sizes (log2)
system.mem_ctrls2.writePktSize::4                   0                       # Write request sizes (log2)
system.mem_ctrls2.writePktSize::5                   0                       # Write request sizes (log2)
system.mem_ctrls2.writePktSize::6               19131                       # Write request sizes (log2)
system.mem_ctrls2.rdQLenPdf::0                  65840                       # What read queue length does an incoming req see
system.mem_ctrls2.rdQLenPdf::1                  33204                       # What read queue length does an incoming req see
system.mem_ctrls2.rdQLenPdf::2                  16965                       # What read queue length does an incoming req see
system.mem_ctrls2.rdQLenPdf::3                   8696                       # What read queue length does an incoming req see
system.mem_ctrls2.rdQLenPdf::4                   4317                       # What read queue length does an incoming req see
system.mem_ctrls2.rdQLenPdf::5                   2103                       # What read queue length does an incoming req see
system.mem_ctrls2.rdQLenPdf::6                    813                       # What read queue length does an incoming req see
system.mem_ctrls2.rdQLenPdf::7                    304                       # What read queue length does an incoming req see
system.mem_ctrls2.rdQLenPdf::8                    123                       # What read queue length does an incoming req see
system.mem_ctrls2.rdQLenPdf::9                     30                       # What read queue length does an incoming req see
system.mem_ctrls2.rdQLenPdf::10                     5                       # What read queue length does an incoming req see
system.mem_ctrls2.rdQLenPdf::11                     0                       # What read queue length does an incoming req see
system.mem_ctrls2.rdQLenPdf::12                     0                       # What read queue length does an incoming req see
system.mem_ctrls2.rdQLenPdf::13                     0                       # What read queue length does an incoming req see
system.mem_ctrls2.rdQLenPdf::14                     0                       # What read queue length does an incoming req see
system.mem_ctrls2.rdQLenPdf::15                     0                       # What read queue length does an incoming req see
system.mem_ctrls2.rdQLenPdf::16                     0                       # What read queue length does an incoming req see
system.mem_ctrls2.rdQLenPdf::17                     0                       # What read queue length does an incoming req see
system.mem_ctrls2.rdQLenPdf::18                     0                       # What read queue length does an incoming req see
system.mem_ctrls2.rdQLenPdf::19                     0                       # What read queue length does an incoming req see
system.mem_ctrls2.rdQLenPdf::20                     0                       # What read queue length does an incoming req see
system.mem_ctrls2.rdQLenPdf::21                     0                       # What read queue length does an incoming req see
system.mem_ctrls2.rdQLenPdf::22                     0                       # What read queue length does an incoming req see
system.mem_ctrls2.rdQLenPdf::23                     0                       # What read queue length does an incoming req see
system.mem_ctrls2.rdQLenPdf::24                     0                       # What read queue length does an incoming req see
system.mem_ctrls2.rdQLenPdf::25                     0                       # What read queue length does an incoming req see
system.mem_ctrls2.rdQLenPdf::26                     0                       # What read queue length does an incoming req see
system.mem_ctrls2.rdQLenPdf::27                     0                       # What read queue length does an incoming req see
system.mem_ctrls2.rdQLenPdf::28                     0                       # What read queue length does an incoming req see
system.mem_ctrls2.rdQLenPdf::29                     0                       # What read queue length does an incoming req see
system.mem_ctrls2.rdQLenPdf::30                     0                       # What read queue length does an incoming req see
system.mem_ctrls2.rdQLenPdf::31                     0                       # What read queue length does an incoming req see
system.mem_ctrls2.wrQLenPdf::0                      1                       # What write queue length does an incoming req see
system.mem_ctrls2.wrQLenPdf::1                      1                       # What write queue length does an incoming req see
system.mem_ctrls2.wrQLenPdf::2                      1                       # What write queue length does an incoming req see
system.mem_ctrls2.wrQLenPdf::3                      1                       # What write queue length does an incoming req see
system.mem_ctrls2.wrQLenPdf::4                      1                       # What write queue length does an incoming req see
system.mem_ctrls2.wrQLenPdf::5                      1                       # What write queue length does an incoming req see
system.mem_ctrls2.wrQLenPdf::6                      1                       # What write queue length does an incoming req see
system.mem_ctrls2.wrQLenPdf::7                      1                       # What write queue length does an incoming req see
system.mem_ctrls2.wrQLenPdf::8                      1                       # What write queue length does an incoming req see
system.mem_ctrls2.wrQLenPdf::9                      1                       # What write queue length does an incoming req see
system.mem_ctrls2.wrQLenPdf::10                     1                       # What write queue length does an incoming req see
system.mem_ctrls2.wrQLenPdf::11                     1                       # What write queue length does an incoming req see
system.mem_ctrls2.wrQLenPdf::12                     1                       # What write queue length does an incoming req see
system.mem_ctrls2.wrQLenPdf::13                     1                       # What write queue length does an incoming req see
system.mem_ctrls2.wrQLenPdf::14                     1                       # What write queue length does an incoming req see
system.mem_ctrls2.wrQLenPdf::15                   485                       # What write queue length does an incoming req see
system.mem_ctrls2.wrQLenPdf::16                   507                       # What write queue length does an incoming req see
system.mem_ctrls2.wrQLenPdf::17                   847                       # What write queue length does an incoming req see
system.mem_ctrls2.wrQLenPdf::18                  1112                       # What write queue length does an incoming req see
system.mem_ctrls2.wrQLenPdf::19                  1158                       # What write queue length does an incoming req see
system.mem_ctrls2.wrQLenPdf::20                  1164                       # What write queue length does an incoming req see
system.mem_ctrls2.wrQLenPdf::21                  1166                       # What write queue length does an incoming req see
[...]
system.ruby.L1Cache_Controller.MR.Ifetch::total         5853                      
system.ruby.L1Cache_Controller.MR.Store  |           8      6.67%      6.67% |           8      6.67%     13.33% |           9      7.50%     20.83% |           9      7.50%     28.33% |           9      7.50%     35.83% |           0      0.00%     35.83% |           0      0.00%     35.83% |          10      8.33%     44.17% |           8      6.67%     50.83% |           8      6.67%     57.50% |           9      7.50%     65.00% |           8      6.67%     71.67% |           8      6.67%     78.33% |           8      6.67%     85.00% |          10      8.33%     93.33% |           8      6.67%    100.00%
system.ruby.L1Cache_Controller.MR.Store::total          120                      
system.ruby.L1Cache_Controller.MMR.Load  |         976      5.35%      5.35% |         752      4.12%      9.47% |         739      4.05%     13.52% |         862      4.72%     18.24% |        5627     30.84%     49.08% |           0      0.00%     49.08% |           0      0.00%     49.08% |        1081      5.92%     55.01% |         977      5.35%     60.36% |         892      4.89%     65.25% |        1089      5.97%     71.22% |        1088      5.96%     77.18% |        1068      5.85%     83.03% |        1004      5.50%     88.54% |        1100      6.03%     94.56% |         992      5.44%    100.00%
system.ruby.L1Cache_Controller.MMR.Load::total        18247                      
system.ruby.L1Cache_Controller.MMR.Store |        1478      8.62%      8.62% |         923      5.38%     14.00% |         950      5.54%     19.54% |        1520      8.86%     28.40% |         938      5.47%     33.87% |           0      0.00%     33.87% |           0      0.00%     33.87% |        1370      7.99%     41.86% |        1471      8.58%     50.43% |         675      3.94%     54.37% |        1341      7.82%     62.19% |         776      4.52%     66.71% |        1373      8.00%     74.71% |        1432      8.35%     83.06% |        1422      8.29%     91.35% |        1483      8.65%    100.00%
system.ruby.L1Cache_Controller.MMR.Store::total        17152                      
system.ruby.L1Cache_Controller.IM.Ack    |      157684      8.52%      8.52% |      159776      8.63%     17.15% |      158882      8.58%     25.73% |      157599      8.51%     34.25% |       37226      2.01%     36.26% |        5732      0.31%     36.57% |        5747      0.31%     36.88% |      158692      8.57%     45.45% |      151290      8.17%     53.62% |       37922      2.05%     55.67% |      161244      8.71%     64.38% |       38084      2.06%     66.44% |      161692      8.73%     75.17% |      155419      8.40%     83.57% |      152115      8.22%     91.79% |      152045      8.21%    100.00%
system.ruby.L1Cache_Controller.IM.Ack::total      1851149                      
system.ruby.L1Cache_Controller.IM.Exclusive_Data |       10530      8.50%      8.50% |       10669      8.61%     17.11% |       10609      8.56%     25.67% |       10524      8.49%     34.17% |        2500      2.02%     36.18% |         525      0.42%     36.61% |         525      0.42%     37.03% |       10595      8.55%     45.58% |       10096      8.15%     53.73% |        2545      2.05%     55.78% |       10765      8.69%     64.47% |        2552      2.06%     66.53% |       10794      8.71%     75.24% |       10374      8.37%     83.62% |       10153      8.19%     91.81% |       10145      8.19%    100.00%
system.ruby.L1Cache_Controller.IM.Exclusive_Data::total       123901                      
system.ruby.L1Cache_Controller.SM.Ack    |           5      5.49%      5.49% |           5      5.49%     10.99% |           7      7.69%     18.68% |           3      3.30%     21.98% |           5      5.49%     27.47% |           0      0.00%     27.47% |           0      0.00%     27.47% |           5      5.49%     32.97% |          11     12.09%     45.05% |           4      4.40%     49.45% |           5      5.49%     54.95% |           8      8.79%     63.74% |           8      8.79%     72.53% |           6      6.59%     79.12% |           7      7.69%     86.81% |          12     13.19%    100.00%
system.ruby.L1Cache_Controller.SM.Ack::total           91                      
system.ruby.L1Cache_Controller.SM.Data   |           1      7.14%      7.14% |           1      7.14%     14.29% |           1      7.14%     21.43% |           1      7.14%     28.57% |           1      7.14%     35.71% |           0      0.00%     35.71% |           0      0.00%     35.71% |           1      7.14%     42.86% |           1      7.14%     50.00% |           1      7.14%     57.14% |           1      7.14%     64.29% |           1      7.14%     71.43% |           1      7.14%     78.57% |           1      7.14%     85.71% |           1      7.14%     92.86% |           1      7.14%    100.00%
system.ruby.L1Cache_Controller.SM.Data::total           14                      
system.ruby.L1Cache_Controller.ISM.Ack   |           9      8.57%      8.57% |           9      8.57%     17.14% |           7      6.67%     23.81% |          11     10.48%     34.29% |           9      8.57%     42.86% |           0      0.00%     42.86% |           0      0.00%     42.86% |           9      8.57%     51.43% |           3      2.86%     54.29% |          10      9.52%     63.81% |           9      8.57%     72.38% |           6      5.71%     78.10% |           6      5.71%     83.81% |           8      7.62%     91.43% |           7      6.67%     98.10% |           2      1.90%    100.00%
system.ruby.L1Cache_Controller.ISM.Ack::total          105                      
system.ruby.L1Cache_Controller.ISM.All_acks_no_sharers |           1      7.14%      7.14% |           1      7.14%     14.29% |           1      7.14%     21.43% |           1      7.14%     28.57% |           1      7.14%     35.71% |           0      0.00%     35.71% |           0      0.00%     35.71% |           1      7.14%     42.86% |           1      7.14%     50.00% |           1      7.14%     57.14% |           1      7.14%     64.29% |           1      7.14%     71.43% |           1      7.14%     78.57% |           1      7.14%     85.71% |           1      7.14%     92.86% |           1      7.14%    100.00%
system.ruby.L1Cache_Controller.ISM.All_acks_no_sharers::total           14                      
system.ruby.L1Cache_Controller.M_W.Load  |           0      0.00%      0.00% |           0      0.00%      0.00% |           1     50.00%     50.00% |           0      0.00%     50.00% |           0      0.00%     50.00% |           0      0.00%     50.00% |           0      0.00%     50.00% |           0      0.00%     50.00% |           0      0.00%     50.00% |           0      0.00%     50.00% |           0      0.00%     50.00% |           0      0.00%     50.00% |           0      0.00%     50.00% |           1     50.00%    100.00% |           0      0.00%    100.00% |           0      0.00%    100.00%
system.ruby.L1Cache_Controller.M_W.Load::total            2                      
system.ruby.L1Cache_Controller.M_W.Ifetch |           0      0.00%      0.00% |           0      0.00%      0.00% |           0      0.00%      0.00% |           1     50.00%     50.00% |           0      0.00%     50.00% |           0      0.00%     50.00% |           0      0.00%     50.00% |           0      0.00%     50.00% |           0      0.00%     50.00% |           0      0.00%     50.00% |           0      0.00%     50.00% |           1     50.00%    100.00% |           0      0.00%    100.00% |           0      0.00%    100.00% |           0      0.00%    100.00% |           0      0.00%    100.00%
system.ruby.L1Cache_Controller.M_W.Ifetch::total            2                      
system.ruby.L1Cache_Controller.M_W.Store |           0      0.00%      0.00% |           0      0.00%      0.00% |           0      0.00%      0.00% |           0      0.00%      0.00% |           3     75.00%     75.00% |           0      0.00%     75.00% |           0      0.00%     75.00% |           0      0.00%     75.00% |           0      0.00%     75.00% |           0      0.00%     75.00% |           0      0.00%     75.00% |           0      0.00%     75.00% |           1     25.00%    100.00% |           0      0.00%    100.00% |           0      0.00%    100.00% |           0      0.00%    100.00%
system.ruby.L1Cache_Controller.M_W.Store::total            4                      
system.ruby.L1Cache_Controller.M_W.Ack   |         725      6.15%      6.15% |         659      5.59%     11.74% |         677      5.74%     17.48% |         683      5.79%     23.27% |         789      6.69%     29.96% |        1854     15.72%     45.68% |        1866     15.82%     61.50% |         568      4.82%     66.32% |         386      3.27%     69.59% |         657      5.57%     75.16% |         627      5.32%     80.48% |         502      4.26%     84.74% |         518      4.39%     89.13% |         471      3.99%     93.12% |         472      4.00%     97.13% |         339      2.87%    100.00%
system.ruby.L1Cache_Controller.M_W.Ack::total        11793                      
system.ruby.L1Cache_Controller.M_W.All_acks_no_sharers |       17263      4.19%      4.19% |        9519      2.31%      6.50% |        9519      2.31%      8.82% |       17148      4.16%     12.98% |       57000     13.84%     26.83% |         364      0.09%     26.91% |         364      0.09%     27.00% |       39976      9.71%     36.71% |       24222      5.88%     42.60% |        9519      2.31%     44.91% |       48531     11.79%     56.69% |       49374     11.99%     68.69% |       40572      9.85%     78.54% |       32368      7.86%     86.40% |       31823      7.73%     94.13% |       24160      5.87%    100.00%
system.ruby.L1Cache_Controller.M_W.All_acks_no_sharers::total       411722                      
system.ruby.L1Cache_Controller.MM_W.Store |           0      0.00%      0.00% |           0      0.00%      0.00% |           0      0.00%      0.00% |           0      0.00%      0.00% |           0      0.00%      0.00% |           0      0.00%      0.00% |           0      0.00%      0.00% |           0      0.00%      0.00% |           0      0.00%      0.00% |           0      0.00%      0.00% |           0      0.00%      0.00% |           0      0.00%      0.00% |           2    100.00%    100.00% |           0      0.00%    100.00% |           0      0.00%    100.00% |           0      0.00%    100.00%
system.ruby.L1Cache_Controller.MM_W.Store::total            2                      
system.ruby.L1Cache_Controller.MM_W.Ack  |         240      3.80%      3.80% |         233      3.69%      7.50% |         227      3.60%     11.09% |         235      3.72%     14.82% |         255      4.04%     18.86% |        1793     28.42%     47.27% |        1778     28.18%     75.45% |         207      3.28%     78.73% |         124      1.97%     80.70% |         227      3.60%     84.29% |         205      3.25%     87.54% |         170      2.69%     90.24% |         193      3.06%     93.30% |         165      2.61%     95.91% |         154      2.44%     98.35% |         104      1.65%    100.00%
system.ruby.L1Cache_Controller.MM_W.Ack::total         6310                      
system.ruby.L1Cache_Controller.MM_W.All_acks_no_sharers |       10530      8.50%      8.50% |       10669      8.61%     17.11% |       10609      8.56%     25.67% |       10524      8.49%     34.16% |        2503      2.02%     36.18% |         525      0.42%     36.61% |         525      0.42%     37.03% |       10595      8.55%     45.58% |       10096      8.15%     53.73% |        2545      2.05%     55.79% |       10765      8.69%     64.47% |        2552      2.06%     66.53% |       10795      8.71%     75.25% |       10374      8.37%     83.62% |       10153      8.19%     91.81% |       10145      8.19%    100.00%
system.ruby.L1Cache_Controller.MM_W.All_acks_no_sharers::total       123905                      
system.ruby.L1Cache_Controller.IS.Ack    |      258150      4.19%      4.19% |      142056      2.31%      6.49% |      142038      2.30%      8.80% |      256467      4.16%     12.96% |      854179     13.86%     26.82% |        3242      0.05%     26.87% |        3230      0.05%     26.93% |      599002      9.72%     36.65% |      362879      5.89%     42.54% |      142057      2.31%     44.84% |      727268     11.80%     56.64% |      740040     12.01%     68.65% |      608007      9.87%     78.52% |      484982      7.87%     86.39% |      476806      7.74%     94.13% |      361992      5.87%    100.00%
system.ruby.L1Cache_Controller.IS.Ack::total      6162395                      
system.ruby.L1Cache_Controller.IS.Shared_Data |           1      7.14%      7.14% |           1      7.14%     14.29% |           1      7.14%     21.43% |           1      7.14%     28.57% |           1      7.14%     35.71% |           0      0.00%     35.71% |           0      0.00%     35.71% |           1      7.14%     42.86% |           1      7.14%     50.00% |           1      7.14%     57.14% |           1      7.14%     64.29% |           1      7.14%     71.43% |           1      7.14%     78.57% |           1      7.14%     85.71% |           1      7.14%     92.86% |           1      7.14%    100.00%
system.ruby.L1Cache_Controller.IS.Shared_Data::total           14                      
system.ruby.L1Cache_Controller.IS.Exclusive_Data |       17263      4.19%      4.19% |        9519      2.31%      6.50% |        9519      2.31%      8.82% |       17148      4.16%     12.98% |       57003     13.84%     26.83% |         364      0.09%     26.91% |         364      0.09%     27.00% |       39976      9.71%     36.71% |       24222      5.88%     42.60% |        9519      2.31%     44.91% |       48531     11.79%     56.69% |       49374     11.99%     68.69% |       40573      9.85%     78.54% |       32368      7.86%     86.40% |       31823      7.73%     94.13% |       24160      5.87%    100.00%
system.ruby.L1Cache_Controller.IS.Exclusive_Data::total       411726                      
system.ruby.L1Cache_Controller.SS.Ack    |           9      8.04%      8.04% |           9      8.04%     16.07% |           9      8.04%     24.11% |           9      8.04%     32.14% |           9      8.04%     40.18% |           0      0.00%     40.18% |           0      0.00%     40.18% |           9      8.04%     48.21% |           4      3.57%     51.79% |          10      8.93%     60.71% |           9      8.04%     68.75% |           7      6.25%     75.00% |           8      7.14%     82.14% |           6      5.36%     87.50% |           6      5.36%     92.86% |           8      7.14%    100.00%
system.ruby.L1Cache_Controller.SS.Ack::total          112                      
system.ruby.L1Cache_Controller.SS.All_acks |           1      7.14%      7.14% |           1      7.14%     14.29% |           1      7.14%     21.43% |           1      7.14%     28.57% |           1      7.14%     35.71% |           0      0.00%     35.71% |           0      0.00%     35.71% |           1      7.14%     42.86% |           1      7.14%     50.00% |           1      7.14%     57.14% |           1      7.14%     64.29% |           1      7.14%     71.43% |           1      7.14%     78.57% |           1      7.14%     85.71% |           1      7.14%     92.86% |           1      7.14%    100.00%
system.ruby.L1Cache_Controller.SS.All_acks::total           14                      
system.ruby.L1Cache_Controller.MI.Load   |           1      2.22%      2.22% |           0      0.00%      2.22% |           0      0.00%      2.22% |           1      2.22%      4.44% |           9     20.00%     24.44% |           0      0.00%     24.44% |           0      0.00%     24.44% |           6     13.33%     37.78% |           2      4.44%     42.22% |           0      0.00%     42.22% |           6     13.33%     55.56% |           6     13.33%     68.89% |           5     11.11%     80.00% |           2      4.44%     84.44% |           4      8.89%     93.33% |           3      6.67%    100.00%
system.ruby.L1Cache_Controller.MI.Load::total           45                      
system.ruby.L1Cache_Controller.MI.Ifetch |           0      0.00%      0.00% |           0      0.00%      0.00% |           0      0.00%      0.00% |           0      0.00%      0.00% |           0      0.00%      0.00% |           0      0.00%      0.00% |           0      0.00%      0.00% |           0      0.00%      0.00% |           0      0.00%      0.00% |           0      0.00%      0.00% |           1    100.00%    100.00% |           0      0.00%    100.00% |           0      0.00%    100.00% |           0      0.00%    100.00% |           0      0.00%    100.00% |           0      0.00%    100.00%
system.ruby.L1Cache_Controller.MI.Ifetch::total            1                      
system.ruby.L1Cache_Controller.MI.Store  |           0      0.00%      0.00% |           0      0.00%      0.00% |           0      0.00%      0.00% |           0      0.00%      0.00% |           0      0.00%      0.00% |           0      0.00%      0.00% |           0      0.00%      0.00% |           1     33.33%     33.33% |           0      0.00%     33.33% |           0      0.00%     33.33% |           0      0.00%     33.33% |           0      0.00%     33.33% |           2     66.67%    100.00% |           0      0.00%    100.00% |           0      0.00%    100.00% |           0      0.00%    100.00%
system.ruby.L1Cache_Controller.MI.Store::total            3                      
system.ruby.L1Cache_Controller.MI.Writeback_Ack |         582      0.47%      0.47% |          34      0.03%      0.50% |           6      0.00%      0.50% |         510      0.41%      0.91% |       25284     20.35%     21.26% |           0      0.00%     21.26% |           0      0.00%     21.26% |       16315     13.13%     34.38% |        2837      2.28%     36.67% |           0      0.00%     36.67% |       24978     20.10%     56.77% |       17711     14.25%     71.02% |       17110     13.77%     84.79% |        8606      6.93%     91.71% |        7968      6.41%     98.12% |        2333      1.88%    100.00%
system.ruby.L1Cache_Controller.MI.Writeback_Ack::total       124274                      
system.ruby.L1Cache_Controller.MT.Complete_L2_to_L1 |        4473      8.31%      8.31% |        3641      6.76%     15.07% |        3634      6.75%     21.82% |        3596      6.68%     28.50% |        3491      6.48%     34.99% |           0      0.00%     34.99% |           0      0.00%     34.99% |        3648      6.78%     41.77% |        3680      6.84%     48.60% |        3602      6.69%     55.29% |        3633      6.75%     62.04% |        3615      6.72%     68.76% |        4300      7.99%     76.74% |        4320      8.02%     84.77% |        4561      8.47%     93.24% |        3638      6.76%    100.00%
system.ruby.L1Cache_Controller.MT.Complete_L2_to_L1::total        53832                      
system.ruby.L1Cache_Controller.MMT.Complete_L2_to_L1 |        2454      6.93%      6.93% |        1675      4.73%     11.66% |        1689      4.77%     16.44% |        2382      6.73%     23.16% |        6565     18.55%     41.71% |           0      0.00%     41.71% |           0      0.00%     41.71% |        2451      6.92%     48.63% |        2448      6.92%     55.55% |        1567      4.43%     59.98% |        2430      6.86%     66.84% |        1864      5.27%     72.11% |        2441      6.90%     79.00% |        2436      6.88%     85.88% |        2522      7.12%     93.01% |        2475      6.99%    100.00%
system.ruby.L1Cache_Controller.MMT.Complete_L2_to_L1::total        35399                      

---------- End Simulation Statistics   ----------
