
---------- Begin Simulation Statistics ----------
sim_seconds                                  0.016049                       # Number of seconds simulated
sim_ticks                                 16048956000                       # Number of ticks simulated
final_tick                                16048956000                       # Number of ticks from beginning of simulation (restored from checkpoints and never reset)
sim_freq                                 1000000000000                       # Frequency of simulated ticks
host_inst_rate                                  55229                       # Simulator instruction rate (inst/s)
host_op_rate                                    95807                       # Simulator op (including micro ops) rate (op/s)
host_tick_rate                               19268674                       # Simulator tick rate (ticks/s)
host_mem_usage                                2043208                       # Number of bytes of host memory used
host_seconds                                   832.90                       # Real time elapsed on the host
sim_insts                                    46000301                       # Number of instructions simulated
sim_ops                                      79797897                       # Number of ops (including micro ops) simulated
system.voltage_domain.voltage                       1                       # Voltage in Volts
system.clk_domain.clock                          1000                       # Clock period in ticks
system.mem_ctrls0.pwrStateResidencyTicks::UNDEFINED  16048956000                       # Cumulative time (in ticks) in various power states
system.mem_ctrls0.bytes_read::ruby.dir_cntrl0     10123840                       # Number of bytes read from this memory
system.mem_ctrls0.bytes_read::total          10123840                       # Number of bytes read from this memory
system.mem_ctrls0.bytes_written::ruby.dir_cntrl0      1063424                       # Number of bytes written to this memory
system.mem_ctrls0.bytes_written::total        1063424                       # Number of bytes written to this memory
system.mem_ctrls0.num_reads::ruby.dir_cntrl0       158185                       # Number of read requests responded to by this memory
system.mem_ctrls0.num_reads::total             158185                       # Number of read requests responded to by this memory
system.mem_ctrls0.num_writes::ruby.dir_cntrl0        16616                       # Number of write requests responded to by this memory
system.mem_ctrls0.num_writes::total             16616                       # Number of write requests responded to by this memory
system.mem_ctrls0.bw_read::ruby.dir_cntrl0    630809879                       # Total read bandwidth from this memory (bytes/s)
system.mem_ctrls0.bw_read::total            630809879                       # Total read bandwidth from this memory (bytes/s)
system.mem_ctrls0.bw_write::ruby.dir_cntrl0     66261257                       # Write bandwidth from this memory (bytes/s)
system.mem_ctrls0.bw_write::total            66261257                       # Write bandwidth from this memory (bytes/s)
system.mem_ctrls0.bw_total::ruby.dir_cntrl0    697071137                       # Total bandwidth to/from this memory (bytes/s)
system.mem_ctrls0.bw_total::total           697071137                       # Total bandwidth to/from this memory (bytes/s)
system.mem_ctrls0.readReqs                     158185                       # Number of read requests accepted
system.mem_ctrls0.avgNetLat                      0.00                       # Average network latency to DRAM controller
system.mem_ctrls0.writeReqs                     16616                       # Number of write requests accepted
system.mem_ctrls0.readBursts                   158185                       # Number of DRAM read bursts, including those serviced by the write queue
system.mem_ctrls0.writeBursts                   16616                       # Number of DRAM write bursts, including those merged in the write queue
system.mem_ctrls0.bytesReadDRAM              10122944                       # Total number of bytes read from DRAM
system.mem_ctrls0.bytesReadWrQ                    896                       # Total number of bytes read from write queue
system.mem_ctrls0.bytesWritten                1061632                       # Total number of bytes written to DRAM
system.mem_ctrls0.bytesReadSys               10123840                       # Total read bytes from the system interface side
system.mem_ctrls0.bytesWrittenSys             1063424                       # Total written bytes from the system interface side
system.mem_ctrls0.servicedByWrQ                    14                       # Number of DRAM read bursts serviced by the write queue
system.mem_ctrls0.mergedWrBursts                    0                       # Number of DRAM write bursts merged with an existing one
system.mem_ctrls0.neitherReadNorWriteReqs            0                       # Number of requests that are neither read nor write
system.mem_ctrls0.perBankRdBursts::0            10301                       # Per bank write bursts
system.mem_ctrls0.perBankRdBursts::1             9735                       # Per bank write bursts
system.mem_ctrls0.perBankRdBursts::2             9563                       # Per bank write bursts
system.mem_ctrls0.perBankRdBursts::3             9506                       # Per bank write bursts
system.mem_ctrls0.perBankRdBursts::4             9406                       # Per bank write bursts
system.mem_ctrls0.perBankRdBursts::5             9048                       # Per bank write bursts
system.mem_ctrls0.perBankRdBursts::6             9172                       # Per bank write bursts
system.mem_ctrls0.perBankRdBursts::7             9577                       # Per bank write bursts
system.mem_ctrls0.perBankRdBursts::8             9488                       # Per bank write bursts
system.mem_ctrls0.perBankRdBursts::9             9917                       # Per bank write bursts
system.mem_ctrls0.perBankRdBursts::10           10497                       # Per bank write bursts
system.mem_ctrls0.perBankRdBursts::11           10352                       # Per bank write bursts
system.mem_ctrls0.perBankRdBursts::12           10678                       # Per bank write bursts
system.mem_ctrls0.perBankRdBursts::13           10705                       # Per bank write bursts
system.mem_ctrls0.perBankRdBursts::14           10122                       # Per bank write bursts
system.mem_ctrls0.perBankRdBursts::15           10104                       # Per bank write bursts
system.mem_ctrls0.perBankWrBursts::0             1192                       # Per bank write bursts
system.mem_ctrls0.perBankWrBursts::1              914                       # Per bank write bursts
system.mem_ctrls0.perBankWrBursts::2              921                       # Per bank write bursts
system.mem_ctrls0.perBankWrBursts::3              979                       # Per bank write bursts
system.mem_ctrls0.perBankWrBursts::4              868                       # Per bank write bursts
system.mem_ctrls0.perBankWrBursts::5              719                       # Per bank write bursts
system.mem_ctrls0.perBankWrBursts::6              724                       # Per bank write bursts
system.mem_ctrls0.perBankWrBursts::7              878                       # Per bank write bursts
system.mem_ctrls0.perBankWrBursts::8              881                       # Per bank write bursts
system.mem_ctrls0.perBankWrBursts::9              990                       # Per bank write bursts
system.mem_ctrls0.perBankWrBursts::10            1352                       # Per bank write bursts
system.mem_ctrls0.perBankWrBursts::11            1287                       # Per bank write bursts
system.mem_ctrls0.perBankWrBursts::12            1309                       # Per bank write bursts
system.mem_ctrls0.perBankWrBursts::13            1218                       # Per bank write bursts
system.mem_ctrls0.perBankWrBursts::14            1106                       # Per bank write bursts
system.mem_ctrls0.perBankWrBursts::15            1250                       # Per bank write bursts
system.mem_ctrls0.numRdRetry                        0                       # Number of times read queue was full causing retry
system.mem_ctrls0.numWrRetry                        0                       # Number of times write queue was full causing retry
system.mem_ctrls0.totGap                  16047820500                       # Total gap between requests
system.mem_ctrls0.readPktSize::0                    0                       # Read request sizes (log2)
system.mem_ctrls0.readPktSize::1                    0                       # Read request sizes (log2)
system.mem_ctrls0.readPktSize::2                    0                       # Read request sizes (log2)
system.mem_ctrls0.readPktSize::3                    0                       # Read request sizes (log2)
system.mem_ctrls0.readPktSize::4                    0                       # Read request sizes (log2)
system.mem_ctrls0.readPktSize::5                    0                       # Read request sizes (log2)
system.mem_ctrls0.readPktSize::6               158185                       # Read request sizes (log2)
system.mem_ctrls0.writePktSize::0                   0                       # Write request sizes (log2)
system.mem_ctrls0.writePktSize::1                   0                       # Write request sizes (log2)
system.mem_ctrls0.writePktSize::2                   0                       # Write request sizes (log2)
system.mem_ctrls0.writePktSize::3                   0                       # Write request sizes (log2)
system.mem_ctrls0.writePktSize::4                   0                       # Write request sizes (log2)
system.mem_ctrls0.writePktSize::5                   0                       # Write request sizes (log2)
system.mem_ctrls0.writePktSize::6               16616                       # Write request sizes (log2)
system.mem_ctrls0.rdQLenPdf::0                  77166                       # What read queue length does an incoming req see
system.mem_ctrls0.rdQLenPdf::1                  39807                       # What read queue length does an incoming req see
system.mem_ctrls0.rdQLenPdf::2                  21277                       # What read queue length does an incoming req see
system.mem_ctrls0.rdQLenPdf::3                  11375                       # What read queue length does an incoming req see
system.mem_ctrls0.rdQLenPdf::4                   5240                       # What read queue length does an incoming req see
system.mem_ctrls0.rdQLenPdf::5                   2219                       # What read queue length does an incoming req see
system.mem_ctrls0.rdQLenPdf::6                    742                       # What read queue length does an incoming req see
system.mem_ctrls0.rdQLenPdf::7                    260                       # What read queue length does an incoming req see
system.mem_ctrls0.rdQLenPdf::8                     68                       # What read queue length does an incoming req see
system.mem_ctrls0.rdQLenPdf::9                     16                       # What read queue length does an incoming req see
system.mem_ctrls0.rdQLenPdf::10                     1                       # What read queue length does an incoming req see
system.mem_ctrls0.rdQLenPdf::11                     0                       # What read queue length does an incoming req see
system.mem_ctrls0.rdQLenPdf::12                     0                       # What read queue length does an incoming req see
system.mem_ctrls0.rdQLenPdf::13                     0                       # What read queue length does an incoming req see
system.mem_ctrls0.rdQLenPdf::14                     0                       # What read queue length does an incoming req see
system.mem_ctrls0.rdQLenPdf::15                     0                       # What read queue length does an incoming req see
system.mem_ctrls0.rdQLenPdf::16                     0                       # What read queue length does an incoming req see
system.mem_ctrls0.rdQLenPdf::17                     0                       # What read queue length does an incoming req see
system.mem_ctrls0.rdQLenPdf::18                     0                       # What read queue length does an incoming req see
system.mem_ctrls0.rdQLenPdf::19                     0                       # What read queue length does an incoming req see
system.mem_ctrls0.rdQLenPdf::20                     0                       # What read queue length does an incoming req see
system.mem_ctrls0.rdQLenPdf::21                     0                       # What read queue length does an incoming req see
system.mem_ctrls0.rdQLenPdf::22                     0                       # What read queue length does an incoming req see
system.mem_ctrls0.rdQLenPdf::23                     0                       # What read queue length does an incoming req see
system.mem_ctrls0.rdQLenPdf::24                     0                       # What read queue length does an incoming req see
system.mem_ctrls0.rdQLenPdf::25                     0                       # What read queue length does an incoming req see
system.mem_ctrls0.rdQLenPdf::26                     0                       # What read queue length does an incoming req see
system.mem_ctrls0.rdQLenPdf::27                     0                       # What read queue length does an incoming req see
system.mem_ctrls0.rdQLenPdf::28                     0                       # What read queue length does an incoming req see
system.mem_ctrls0.rdQLenPdf::29                     0                       # What read queue length does an incoming req see
system.mem_ctrls0.rdQLenPdf::30                     0                       # What read queue length does an incoming req see
system.mem_ctrls0.rdQLenPdf::31                     0                       # What read queue length does an incoming req see
system.mem_ctrls0.wrQLenPdf::0                      1                       # What write queue length does an incoming req see
system.mem_ctrls0.wrQLenPdf::1                      1                       # What write queue length does an incoming req see
system.mem_ctrls0.wrQLenPdf::2                      1                       # What write queue length does an incoming req see
system.mem_ctrls0.wrQLenPdf::3                      1                       # What write queue length does an incoming req see
system.mem_ctrls0.wrQLenPdf::4                      1                       # What write queue length does an incoming req see
system.mem_ctrls0.wrQLenPdf::5                      1                       # What write queue length does an incoming req see
system.mem_ctrls0.wrQLenPdf::6                      1                       # What write queue length does an incoming req see
system.mem_ctrls0.wrQLenPdf::7                      1                       # What write queue length does an incoming req see
system.mem_ctrls0.wrQLenPdf::8                      1                       # What write queue length does an incoming req see
system.mem_ctrls0.wrQLenPdf::9                      1                       # What write queue length does an incoming req see
system.mem_ctrls0.wrQLenPdf::10                     1                       # What write queue length does an incoming req see
system.mem_ctrls0.wrQLenPdf::11                     1                       # What write queue length does an incoming req see
system.mem_ctrls0.wrQLenPdf::12                     1                       # What write queue length does an incoming req see
system.mem_ctrls0.wrQLenPdf::13                     1                       # What write queue length does an incoming req see
system.mem_ctrls0.wrQLenPdf::14                     1                       # What write queue length does an incoming req see
system.mem_ctrls0.wrQLenPdf::15                   263                       # What write queue length does an incoming req see
system.mem_ctrls0.wrQLenPdf::16                   299                       # What write queue length does an incoming req see
system.mem_ctrls0.wrQLenPdf::17                   688                       # What write queue length does an incoming req see
system.mem_ctrls0.wrQLenPdf::18                   958                       # What write queue length does an incoming req see
system.mem_ctrls0.wrQLenPdf::19                  1027                       # What write queue length does an incoming req see
system.mem_ctrls0.wrQLenPdf::20                  1050                       # What write queue length does an incoming req see
system.mem_ctrls0.wrQLenPdf::21                  1036                       # What write queue length does an incoming req see
system.mem_ctrls0.wrQLenPdf::22                  1030                       # What write queue length does an incoming req see
system.mem_ctrls0.wrQLenPdf::23                  1028                       # What write queue length does an incoming req see
system.mem_ctrls0.wrQLenPdf::24                  1030                       # What write queue length does an incoming req see
system.mem_ctrls0.wrQLenPdf::25                  1021                       # What write queue length does an incoming req see
system.mem_ctrls0.wrQLenPdf::26                  1019                       # What write queue length does an incoming req see
system.mem_ctrls0.wrQLenPdf::27                  1017                       # What write queue length does an incoming req see
system.mem_ctrls0.wrQLenPdf::28                  1024                       # What write queue length does an incoming req see
system.mem_ctrls0.wrQLenPdf::29                  1020                       # What write queue length does an incoming req see
system.mem_ctrls0.wrQLenPdf::30                  1025                       # What write queue length does an incoming req see
system.mem_ctrls0.wrQLenPdf::31                  1020                       # What write queue length does an incoming req see
system.mem_ctrls0.wrQLenPdf::32                  1008                       # What write queue length does an incoming req see
system.mem_ctrls0.wrQLenPdf::33                    33                       # What write queue length does an incoming req see
system.mem_ctrls0.wrQLenPdf::34                     4                       # What write queue length does an incoming req see
system.mem_ctrls0.wrQLenPdf::35                     1                       # What write queue length does an incoming req see
system.mem_ctrls0.wrQLenPdf::36                     0                       # What write queue length does an incoming req see
system.mem_ctrls0.wrQLenPdf::37                     0                       # What write queue length does an incoming req see
system.mem_ctrls0.wrQLenPdf::38                     0                       # What write queue length does an incoming req see
system.mem_ctrls0.wrQLenPdf::39                     0                       # What write queue length does an incoming req see
system.mem_ctrls0.wrQLenPdf::40                     0                       # What write queue length does an incoming req see
system.mem_ctrls0.wrQLenPdf::41                     0                       # What write queue length does an incoming req see
system.mem_ctrls0.wrQLenPdf::42                     0                       # What write queue length does an incoming req see
system.mem_ctrls0.wrQLenPdf::43                     0                       # What write queue length does an incoming req see
system.mem_ctrls0.wrQLenPdf::44                     0                       # What write queue length does an incoming req see
system.mem_ctrls0.wrQLenPdf::45                     0                       # What write queue length does an incoming req see
system.mem_ctrls0.wrQLenPdf::46                     0                       # What write queue length does an incoming req see
system.mem_ctrls0.wrQLenPdf::47                     0                       # What write queue length does an incoming req see
system.mem_ctrls0.wrQLenPdf::48                     0                       # What write queue length does an incoming req see
system.mem_ctrls0.wrQLenPdf::49                     0                       # What write queue length does an incoming req see
system.mem_ctrls0.wrQLenPdf::50                     0                       # What write queue length does an incoming req see
system.mem_ctrls0.wrQLenPdf::51                     0                       # What write queue length does an incoming req see
system.mem_ctrls0.wrQLenPdf::52                     0                       # What write queue length does an incoming req see
system.mem_ctrls0.wrQLenPdf::53                     0                       # What write queue length does an incoming req see
system.mem_ctrls0.wrQLenPdf::54                     0                       # What write queue length does an incoming req see
system.mem_ctrls0.wrQLenPdf::55                     0                       # What write queue length does an incoming req see
system.mem_ctrls0.wrQLenPdf::56                     0                       # What write queue length does an incoming req see
system.mem_ctrls0.wrQLenPdf::57                     0                       # What write queue length does an incoming req see
system.mem_ctrls0.wrQLenPdf::58                     0                       # What write queue length does an incoming req see
system.mem_ctrls0.wrQLenPdf::59                     0                       # What write queue length does an incoming req see
system.mem_ctrls0.wrQLenPdf::60                     0                       # What write queue length does an incoming req see
system.mem_ctrls0.wrQLenPdf::61                     0                       # What write queue length does an incoming req see
system.mem_ctrls0.wrQLenPdf::62                     0                       # What write queue length does an incoming req see
system.mem_ctrls0.wrQLenPdf::63                     0                       # What write queue length does an incoming req see
system.mem_ctrls0.bytesPerActivate::samples        98671                       # Bytes accessed per row activation
system.mem_ctrls0.bytesPerActivate::mean   113.343130                       # Bytes accessed per row activation
system.mem_ctrls0.bytesPerActivate::gmean    87.235095                       # Bytes accessed per row activation
system.mem_ctrls0.bytesPerActivate::stdev   125.678922                       # Bytes accessed per row activation
system.mem_ctrls0.bytesPerActivate::0-127        72307     73.28%     73.28% # Bytes accessed per row activation
system.mem_ctrls0.bytesPerActivate::128-255        16470     16.69%     89.97% # Bytes accessed per row activation
system.mem_ctrls0.bytesPerActivate::256-383         4091      4.15%     94.12% # Bytes accessed per row activation
system.mem_ctrls0.bytesPerActivate::384-511         2470      2.50%     96.62% # Bytes accessed per row activation
system.mem_ctrls0.bytesPerActivate::512-639         1517      1.54%     98.16% # Bytes accessed per row activation
system.mem_ctrls0.bytesPerActivate::640-767         1121      1.14%     99.30% # Bytes accessed per row activation
system.mem_ctrls0.bytesPerActivate::768-895          251      0.25%     99.55% # Bytes accessed per row activation
system.mem_ctrls0.bytesPerActivate::896-1023          198      0.20%     99.75% # Bytes accessed per row activation
system.mem_ctrls0.bytesPerActivate::1024-1151          246      0.25%    100.00% # Bytes accessed per row activation
system.mem_ctrls0.bytesPerActivate::total        98671                       # Bytes accessed per row activation
system.mem_ctrls0.rdPerTurnAround::samples         1000                       # Reads before turning the bus around for writes
system.mem_ctrls0.rdPerTurnAround::mean    158.147000                       # Reads before turning the bus around for writes
system.mem_ctrls0.rdPerTurnAround::gmean    58.047831                       # Reads before turning the bus around for writes
system.mem_ctrls0.rdPerTurnAround::stdev  2102.484684                       # Reads before turning the bus around for writes
system.mem_ctrls0.rdPerTurnAround::0-4095          999     99.90%     99.90% # Reads before turning the bus around for writes
system.mem_ctrls0.rdPerTurnAround::65536-69631            1      0.10%    100.00% # Reads before turning the bus around for writes
system.mem_ctrls0.rdPerTurnAround::total         1000                       # Reads before turning the bus around for writes
system.mem_ctrls0.wrPerTurnAround::samples         1000                       # Writes before turning the bus around for reads
system.mem_ctrls0.wrPerTurnAround::mean     16.588000                       # Writes before turning the bus around for reads
system.mem_ctrls0.wrPerTurnAround::gmean    16.563908                       # Writes before turning the bus around for reads
system.mem_ctrls0.wrPerTurnAround::stdev     0.910541                       # Writes before turning the bus around for reads
system.mem_ctrls0.wrPerTurnAround::16             693     69.30%     69.30% # Writes before turning the bus around for reads
system.mem_ctrls0.wrPerTurnAround::17              35      3.50%     72.80% # Writes before turning the bus around for reads
system.mem_ctrls0.wrPerTurnAround::18             265     26.50%     99.30% # Writes before turning the bus around for reads
system.mem_ctrls0.wrPerTurnAround::19               6      0.60%     99.90% # Writes before turning the bus around for reads
system.mem_ctrls0.wrPerTurnAround::21               1      0.10%    100.00% # Writes before turning the bus around for reads
system.mem_ctrls0.wrPerTurnAround::total         1000                       # Writes before turning the bus around for reads
system.mem_ctrls0.totQLat                  4591768500                       # Total ticks spent queuing
system.mem_ctrls0.totMemAccLat             7557474750                       # Total ticks spent from burst creation until serviced by the DRAM
system.mem_ctrls0.totBusLat                 790855000                       # Total ticks spent in databus transfers
system.mem_ctrls0.avgQLat                    29030.41                       # Average queueing delay per DRAM burst
system.mem_ctrls0.avgBusLat                   5000.00                       # Average bus latency per DRAM burst
system.mem_ctrls0.avgMemAccLat               47780.41                       # Average memory access latency per DRAM burst
system.mem_ctrls0.avgRdBW                      630.75                       # Average DRAM read bandwidth in MiByte/s
system.mem_ctrls0.avgWrBW                       66.15                       # Average achieved write bandwidth in MiByte/s
system.mem_ctrls0.avgRdBWSys                   630.81                       # Average system read bandwidth in MiByte/s
system.mem_ctrls0.avgWrBWSys                    66.26                       # Average system write bandwidth in MiByte/s
system.mem_ctrls0.peakBW                     12800.00                       # Theoretical peak bandwidth in MiByte/s
system.mem_ctrls0.busUtil                        5.44                       # Data bus utilization in percentage
system.mem_ctrls0.busUtilRead                    4.93                       # Data bus utilization in percentage for reads
system.mem_ctrls0.busUtilWrite                   0.52                       # Data bus utilization in percentage for writes
system.mem_ctrls0.avgRdQLen                      1.56                       # Average read queue length when enqueuing
system.mem_ctrls0.avgWrQLen                     13.14                       # Average write queue length when enqueuing
system.mem_ctrls0.readRowHits                   72520                       # Number of row buffer hits during reads
system.mem_ctrls0.writeRowHits                   3561                       # Number of row buffer hits during writes
system.mem_ctrls0.readRowHitRate                45.85                       # Row buffer hit rate for reads
system.mem_ctrls0.writeRowHitRate               21.43                       # Row buffer hit rate for writes
system.mem_ctrls0.avgGap                     91806.23                       # Average gap between requests
system.mem_ctrls0.pageHitRate                   43.53                       # Row buffer hit rate, read and write combined
system.mem_ctrls0_0.actEnergy               335237280                       # Energy for activate commands per rank (pJ)
system.mem_ctrls0_0.preEnergy               178175250                       # Energy for precharge commands per rank (pJ)
system.mem_ctrls0_0.readEnergy              544839120                       # Energy for read commands per rank (pJ)
system.mem_ctrls0_0.writeEnergy              37557900                       # Energy for write commands per rank (pJ)
system.mem_ctrls0_0.refreshEnergy        1262470560.000000                       # Energy for refresh commands per rank (pJ)
system.mem_ctrls0_0.actBackEnergy          1460567430                       # Energy for active background per rank (pJ)
system.mem_ctrls0_0.preBackEnergy            33340320                       # Energy for precharge background per rank (pJ)
system.mem_ctrls0_0.actPowerDownEnergy     5437859280                       # Energy for active power-down per rank (pJ)
system.mem_ctrls0_0.prePowerDownEnergy      241238400                       # Energy for precharge power-down per rank (pJ)
system.mem_ctrls0_0.selfRefreshEnergy        61159170                       # Energy for self refresh per rank (pJ)
system.mem_ctrls0_0.totalEnergy            9592882800                       # Total energy per rank (pJ)
system.mem_ctrls0_0.averagePower           597.726273                       # Core power per rank (mW)
system.mem_ctrls0_0.totalIdleTime         12757216250                       # Total Idle time Per DRAM Rank
system.mem_ctrls0_0.memoryStateTime::IDLE     17765500                       # Time in different power states
system.mem_ctrls0_0.memoryStateTime::REF    534262000                       # Time in different power states
system.mem_ctrls0_0.memoryStateTime::SREF    204804000                       # Time in different power states
system.mem_ctrls0_0.memoryStateTime::PRE_PDN    628162750                       # Time in different power states
system.mem_ctrls0_0.memoryStateTime::ACT   2738694000                       # Time in different power states
system.mem_ctrls0_0.memoryStateTime::ACT_PDN  11925267750                       # Time in different power states
system.mem_ctrls0_1.actEnergy               369323640                       # Energy for activate commands per rank (pJ)
system.mem_ctrls0_1.preEnergy               196281195                       # Energy for precharge commands per rank (pJ)
system.mem_ctrls0_1.readEnergy              584501820                       # Energy for read commands per rank (pJ)
system.mem_ctrls0_1.writeEnergy              49031460                       # Energy for write commands per rank (pJ)
system.mem_ctrls0_1.refreshEnergy        1264929120.000000                       # Energy for refresh commands per rank (pJ)
system.mem_ctrls0_1.actBackEnergy          1551410040                       # Energy for active background per rank (pJ)
system.mem_ctrls0_1.preBackEnergy            33588960                       # Energy for precharge background per rank (pJ)
system.mem_ctrls0_1.actPowerDownEnergy     5382776760                       # Energy for active power-down per rank (pJ)
system.mem_ctrls0_1.prePowerDownEnergy      235808640                       # Energy for precharge power-down per rank (pJ)
system.mem_ctrls0_1.selfRefreshEnergy        43279695                       # Energy for self refresh per rank (pJ)
system.mem_ctrls0_1.totalEnergy            9711101640                       # Total energy per rank (pJ)
system.mem_ctrls0_1.averagePower           605.092412                       # Core power per rank (mW)
system.mem_ctrls0_1.totalIdleTime         12557605000                       # Total Idle time Per DRAM Rank
system.mem_ctrls0_1.memoryStateTime::IDLE     15809500                       # Time in different power states
system.mem_ctrls0_1.memoryStateTime::REF    535290000                       # Time in different power states
system.mem_ctrls0_1.memoryStateTime::SREF    140470000                       # Time in different power states
system.mem_ctrls0_1.memoryStateTime::PRE_PDN    613921750                       # Time in different power states
system.mem_ctrls0_1.memoryStateTime::ACT   2938452250                       # Time in different power states
system.mem_ctrls0_1.memoryStateTime::ACT_PDN  11805012500                       # Time in different power states
system.mem_ctrls1.pwrStateResidencyTicks::UNDEFINED  16048956000                       # Cumulative time (in ticks) in various power states
system.mem_ctrls1.bytes_read::ruby.dir_cntrl1     10093184                       # Number of bytes read from this memory
system.mem_ctrls1.bytes_read::total          10093184                       # Number of bytes read from this memory
system.mem_ctrls1.bytes_written::ruby.dir_cntrl1      1060224                       # Number of bytes written to this memory
system.mem_ctrls1.bytes_written::total        1060224                       # Number of bytes written to this memory
system.mem_ctrls1.num_reads::ruby.dir_cntrl1       157706                       # Number of read requests responded to by this memory
system.mem_ctrls1.num_reads::total             157706                       # Number of read requests responded to by this memory
system.mem_ctrls1.num_writes::ruby.dir_cntrl1        16566                       # Number of write requests responded to by this memory
system.mem_ctrls1.num_writes::total             16566                       # Number of write requests responded to by this memory
system.mem_ctrls1.bw_read::ruby.dir_cntrl1    628899724                       # Total read bandwidth from this memory (bytes/s)
system.mem_ctrls1.bw_read::total            628899724                       # Total read bandwidth from this memory (bytes/s)
system.mem_ctrls1.bw_write::ruby.dir_cntrl1     66061867                       # Write bandwidth from this memory (bytes/s)
system.mem_ctrls1.bw_write::total            66061867                       # Write bandwidth from this memory (bytes/s)
system.mem_ctrls1.bw_total::ruby.dir_cntrl1    694961591                       # Total bandwidth to/from this memory (bytes/s)
system.mem_ctrls1.bw_total::total           694961591                       # Total bandwidth to/from this memory (bytes/s)
system.mem_ctrls1.readReqs                     157706                       # Number of read requests accepted
system.mem_ctrls1.avgNetLat                      0.00                       # Average network latency to DRAM controller
system.mem_ctrls1.writeReqs                     16566                       # Number of write requests accepted
system.mem_ctrls1.readBursts                   157706                       # Number of DRAM read bursts, including those serviced by the write queue
system.mem_ctrls1.writeBursts                   16566                       # Number of DRAM write bursts, including those merged in the write queue
system.mem_ctrls1.bytesReadDRAM              10092544                       # Total number of bytes read from DRAM
system.mem_ctrls1.bytesReadWrQ                    640                       # Total number of bytes read from write queue
system.mem_ctrls1.bytesWritten                1058816                       # Total number of bytes written to DRAM
system.mem_ctrls1.bytesReadSys               10093184                       # Total read bytes from the system interface side
system.mem_ctrls1.bytesWrittenSys             1060224                       # Total written bytes from the system interface side
system.mem_ctrls1.servicedByWrQ                    10                       # Number of DRAM read bursts serviced by the write queue
system.mem_ctrls1.mergedWrBursts                    0                       # Number of DRAM write bursts merged with an existing one
system.mem_ctrls1.neitherReadNorWriteReqs            0                       # Number of requests that are neither read nor write
system.mem_ctrls1.perBankRdBursts::0            10129                       # Per bank write bursts
system.mem_ctrls1.perBankRdBursts::1             9674                       # Per bank write bursts
system.mem_ctrls1.perBankRdBursts::2             9541                       # Per bank write bursts
system.mem_ctrls1.perBankRdBursts::3             9526                       # Per bank write bursts
system.mem_ctrls1.perBankRdBursts::4             9355                       # Per bank write bursts
system.mem_ctrls1.perBankRdBursts::5             9065                       # Per bank write bursts
system.mem_ctrls1.perBankRdBursts::6             9176                       # Per bank write bursts
system.mem_ctrls1.perBankRdBursts::7             9542                       # Per bank write bursts
system.mem_ctrls1.perBankRdBursts::8             9423                       # Per bank write bursts
system.mem_ctrls1.perBankRdBursts::9             9900                       # Per bank write bursts
system.mem_ctrls1.perBankRdBursts::10           10479                       # Per bank write bursts
system.mem_ctrls1.perBankRdBursts::11           10333                       # Per bank write bursts
system.mem_ctrls1.perBankRdBursts::12           10660                       # Per bank write bursts
system.mem_ctrls1.perBankRdBursts::13           10697                       # Per bank write bursts
system.mem_ctrls1.perBankRdBursts::14           10122                       # Per bank write bursts
system.mem_ctrls1.perBankRdBursts::15           10074                       # Per bank write bursts
system.mem_ctrls1.perBankWrBursts::0             1128                       # Per bank write bursts
system.mem_ctrls1.perBankWrBursts::1              883                       # Per bank write bursts
system.mem_ctrls1.perBankWrBursts::2              919                       # Per bank write bursts
system.mem_ctrls1.perBankWrBursts::3              997                       # Per bank write bursts
system.mem_ctrls1.perBankWrBursts::4              849                       # Per bank write bursts
system.mem_ctrls1.perBankWrBursts::5              760                       # Per bank write bursts
system.mem_ctrls1.perBankWrBursts::6              751                       # Per bank write bursts
system.mem_ctrls1.perBankWrBursts::7              862                       # Per bank write bursts
system.mem_ctrls1.perBankWrBursts::8              849                       # Per bank write bursts
system.mem_ctrls1.perBankWrBursts::9             1013                       # Per bank write bursts
system.mem_ctrls1.perBankWrBursts::10            1374                       # Per bank write bursts
system.mem_ctrls1.perBankWrBursts::11            1255                       # Per bank write bursts
system.mem_ctrls1.perBankWrBursts::12            1333                       # Per bank write bursts
system.mem_ctrls1.perBankWrBursts::13            1256                       # Per bank write bursts
system.mem_ctrls1.perBankWrBursts::14            1079                       # Per bank write bursts
system.mem_ctrls1.perBankWrBursts::15            1236                       # Per bank write bursts
system.mem_ctrls1.numRdRetry                        0                       # Number of times read queue was full causing retry
system.mem_ctrls1.numWrRetry                        0                       # Number of times write queue was full causing retry
system.mem_ctrls1.totGap                  16048353500                       # Total gap between requests
system.mem_ctrls1.readPktSize::0                    0                       # Read request sizes (log2)
system.mem_ctrls1.readPktSize::1                    0                       # Read request sizes (log2)
system.mem_ctrls1.readPktSize::2                    0                       # Read request sizes (log2)
system.mem_ctrls1.readPktSize::3                    0                       # Read request sizes (log2)
system.mem_ctrls1.readPktSize::4                    0                       # Read request sizes (log2)
system.mem_ctrls1.readPktSize::5                    0                       # Read request sizes (log2)
system.mem_ctrls1.readPktSize::6               157706                       # Read request sizes (log2)
system.mem_ctrls1.writePktSize::0                   0                       # Write request sizes (log2)
system.mem_ctrls1.writePktSize::1                   0                       # Write request sizes (log2)
system.mem_ctrls1.writePktSize::2                   0                       # Write request sizes (log2)
system.mem_ctrls1.writePktSize::3                   0                       # Write request sizes (log2)
system.mem_ctrls1.writePktSize::4                   0                       # Write request sizes (log2)
system.mem_ctrls1.writePktSize::5                   0                       # Write request sizes (log2)
system.mem_ctrls1.writePktSize::6               16566                       # Write request sizes (log2)
system.mem_ctrls1.rdQLenPdf::0                  77651                       # What read queue length does an incoming req see
system.mem_ctrls1.rdQLenPdf::1                  39909                       # What read queue length does an incoming req see
system.mem_ctrls1.rdQLenPdf::2                  21013                       # What read queue length does an incoming req see
system.mem_ctrls1.rdQLenPdf::3                  10963                       # What read queue length does an incoming req see
system.mem_ctrls1.rdQLenPdf::4                   5058                       # What read queue length does an incoming req see
system.mem_ctrls1.rdQLenPdf::5                   2055                       # What read queue length does an incoming req see
system.mem_ctrls1.rdQLenPdf::6                    731                       # What read queue length does an incoming req see
system.mem_ctrls1.rdQLenPdf::7                    224                       # What read queue length does an incoming req see
system.mem_ctrls1.rdQLenPdf::8                     74                       # What read queue length does an incoming req see
system.mem_ctrls1.rdQLenPdf::9                     15                       # What read queue length does an incoming req see
system.mem_ctrls1.rdQLenPdf::10                     3                       # What read queue length does an incoming req see
system.mem_ctrls1.rdQLenPdf::11                     0                       # What read queue length does an incoming req see
system.mem_ctrls1.rdQLenPdf::12                     0                       # What read queue length does an incoming req see
system.mem_ctrls1.rdQLenPdf::13                     0                       # What read queue length does an incoming req see
system.mem_ctrls1.rdQLenPdf::14                     0                       # What read queue length does an incoming req see
system.mem_ctrls1.rdQLenPdf::15                     0                       # What read queue length does an incoming req see
system.mem_ctrls1.rdQLenPdf::16                     0                       # What read queue length does an incoming req see
system.mem_ctrls1.rdQLenPdf::17                     0                       # What read queue length does an incoming req see
system.mem_ctrls1.rdQLenPdf::18                     0                       # What read queue length does an incoming req see
system.mem_ctrls1.rdQLenPdf::19                     0                       # What read queue length does an incoming req see
system.mem_ctrls1.rdQLenPdf::20                     0                       # What read queue length does an incoming req see
system.mem_ctrls1.rdQLenPdf::21                     0                       # What read queue length does an incoming req see
system.mem_ctrls1.rdQLenPdf::22                     0                       # What read queue length does an incoming req see
system.mem_ctrls1.rdQLenPdf::23                     0                       # What read queue length does an incoming req see
system.mem_ctrls1.rdQLenPdf::24                     0                       # What read queue length does an incoming req see
system.mem_ctrls1.rdQLenPdf::25                     0                       # What read queue length does an incoming req see
system.mem_ctrls1.rdQLenPdf::26                     0                       # What read queue length does an incoming req see
system.mem_ctrls1.rdQLenPdf::27                     0                       # What read queue length does an incoming req see
system.mem_ctrls1.rdQLenPdf::28                     0                       # What read queue length does an incoming req see
system.mem_ctrls1.rdQLenPdf::29                     0                       # What read queue length does an incoming req see
system.mem_ctrls1.rdQLenPdf::30                     0                       # What read queue length does an incoming req see
system.mem_ctrls1.rdQLenPdf::31                     0                       # What read queue length does an incoming req see
system.mem_ctrls1.wrQLenPdf::0                      1                       # What write queue length does an incoming req see
system.mem_ctrls1.wrQLenPdf::1                      1                       # What write queue length does an incoming req see
system.mem_ctrls1.wrQLenPdf::2                      1                       # What write queue length does an incoming req see
system.mem_ctrls1.wrQLenPdf::3                      1                       # What write queue length does an incoming req see
system.mem_ctrls1.wrQLenPdf::4                      1                       # What write queue length does an incoming req see
system.mem_ctrls1.wrQLenPdf::5                      1                       # What write queue length does an incoming req see
system.mem_ctrls1.wrQLenPdf::6                      1                       # What write queue length does an incoming req see
system.mem_ctrls1.wrQLenPdf::7                      1                       # What write queue length does an incoming req see
system.mem_ctrls1.wrQLenPdf::8                      1                       # What write queue length does an incoming req see
system.mem_ctrls1.wrQLenPdf::9                      1                       # What write queue length does an incoming req see
system.mem_ctrls1.wrQLenPdf::10                     1                       # What write queue length does an incoming req see
system.mem_ctrls1.wrQLenPdf::11                     1                       # What write queue length does an incoming req see
system.mem_ctrls1.wrQLenPdf::12                     1                       # What write queue length does an incoming req see
system.mem_ctrls1.wrQLenPdf::13                     1                       # What write queue length does an incoming req see
system.mem_ctrls1.wrQLenPdf::14                     1                       # What write queue length does an incoming req see
system.mem_ctrls1.wrQLenPdf::15                   269                       # What write queue length does an incoming req see
system.mem_ctrls1.wrQLenPdf::16                   319                       # What write queue length does an incoming req see
system.mem_ctrls1.wrQLenPdf::17                   713                       # What write queue length does an incoming req see
system.mem_ctrls1.wrQLenPdf::18                   980                       # What write queue length does an incoming req see
system.mem_ctrls1.wrQLenPdf::19                  1028                       # What write queue length does an incoming req see
system.mem_ctrls1.wrQLenPdf::20                  1033                       # What write queue length does an incoming req see
system.mem_ctrls1.wrQLenPdf::21                  1015                       # What write queue length does an incoming req see
system.mem_ctrls1.wrQLenPdf::22                  1021                       # What write queue length does an incoming req see
system.mem_ctrls1.wrQLenPdf::23                  1029                       # What write queue length does an incoming req see
system.mem_ctrls1.wrQLenPdf::24                  1015                       # What write queue length does an incoming req see
system.mem_ctrls1.wrQLenPdf::25                  1013                       # What write queue length does an incoming req see
system.mem_ctrls1.wrQLenPdf::26                  1010                       # What write queue length does an incoming req see
system.mem_ctrls1.wrQLenPdf::27                  1016                       # What write queue length does an incoming req see
system.mem_ctrls1.wrQLenPdf::28                  1013                       # What write queue length does an incoming req see
system.mem_ctrls1.wrQLenPdf::29                  1015                       # What write queue length does an incoming req see
system.mem_ctrls1.wrQLenPdf::30                  1016                       # What write queue length does an incoming req see
system.mem_ctrls1.wrQLenPdf::31                  1014                       # What write queue length does an incoming req see
system.mem_ctrls1.wrQLenPdf::32                  1005                       # What write queue length does an incoming req see
system.mem_ctrls1.wrQLenPdf::33                    21                       # What write queue length does an incoming req see
system.mem_ctrls1.wrQLenPdf::34                     4                       # What write queue length does an incoming req see
system.mem_ctrls1.wrQLenPdf::35                     1                       # What write queue length does an incoming req see
system.mem_ctrls1.wrQLenPdf::36                     1                       # What write queue length does an incoming req see
system.mem_ctrls1.wrQLenPdf::37                     0                       # What write queue length does an incoming req see
system.mem_ctrls1.wrQLenPdf::38                     0                       # What write queue length does an incoming req see
system.mem_ctrls1.wrQLenPdf::39                     0                       # What write queue length does an incoming req see
system.mem_ctrls1.wrQLenPdf::40                     0                       # What write queue length does an incoming req see
system.mem_ctrls1.wrQLenPdf::41                     0                       # What write queue length does an incoming req see
system.mem_ctrls1.wrQLenPdf::42                     0                       # What write queue length does an incoming req see
system.mem_ctrls1.wrQLenPdf::43                     0                       # What write queue length does an incoming req see
system.mem_ctrls1.wrQLenPdf::44                     0                       # What write queue length does an incoming req see
system.mem_ctrls1.wrQLenPdf::45                     0                       # What write queue length does an incoming req see
system.mem_ctrls1.wrQLenPdf::46                     0                       # What write queue length does an incoming req see
system.mem_ctrls1.wrQLenPdf::47                     0                       # What write queue length does an incoming req see
system.mem_ctrls1.wrQLenPdf::48                     0                       # What write queue length does an incoming req see
system.mem_ctrls1.wrQLenPdf::49                     0                       # What write queue length does an incoming req see
system.mem_ctrls1.wrQLenPdf::50                     0                       # What write queue length does an incoming req see
system.mem_ctrls1.wrQLenPdf::51                     0                       # What write queue length does an incoming req see
system.mem_ctrls1.wrQLenPdf::52                     0                       # What write queue length does an incoming req see
system.mem_ctrls1.wrQLenPdf::53                     0                       # What write queue length does an incoming req see
system.mem_ctrls1.wrQLenPdf::54                     0                       # What write queue length does an incoming req see
system.mem_ctrls1.wrQLenPdf::55                     0                       # What write queue length does an incoming req see
system.mem_ctrls1.wrQLenPdf::56                     0                       # What write queue length does an incoming req see
system.mem_ctrls1.wrQLenPdf::57                     0                       # What write queue length does an incoming req see
system.mem_ctrls1.wrQLenPdf::58                     0                       # What write queue length does an incoming req see
system.mem_ctrls1.wrQLenPdf::59                     0                       # What write queue length does an incoming req see
system.mem_ctrls1.wrQLenPdf::60                     0                       # What write queue length does an incoming req see
system.mem_ctrls1.wrQLenPdf::61                     0                       # What write queue length does an incoming req see
system.mem_ctrls1.wrQLenPdf::62                     0                       # What write queue length does an incoming req see
system.mem_ctrls1.wrQLenPdf::63                     0                       # What write queue length does an incoming req see
system.mem_ctrls1.bytesPerActivate::samples        98188                       # Bytes accessed per row activation
system.mem_ctrls1.bytesPerActivate::mean   113.564998                       # Bytes accessed per row activation
system.mem_ctrls1.bytesPerActivate::gmean    87.339170                       # Bytes accessed per row activation
system.mem_ctrls1.bytesPerActivate::stdev   125.727312                       # Bytes accessed per row activation
system.mem_ctrls1.bytesPerActivate::0-127        71901     73.23%     73.23% # Bytes accessed per row activation
system.mem_ctrls1.bytesPerActivate::128-255        16408     16.71%     89.94% # Bytes accessed per row activation
system.mem_ctrls1.bytesPerActivate::256-383         4087      4.16%     94.10% # Bytes accessed per row activation
system.mem_ctrls1.bytesPerActivate::384-511         2443      2.49%     96.59% # Bytes accessed per row activation
system.mem_ctrls1.bytesPerActivate::512-639         1548      1.58%     98.17% # Bytes accessed per row activation
system.mem_ctrls1.bytesPerActivate::640-767         1113      1.13%     99.30% # Bytes accessed per row activation
system.mem_ctrls1.bytesPerActivate::768-895          261      0.27%     99.57% # Bytes accessed per row activation
system.mem_ctrls1.bytesPerActivate::896-1023          201      0.20%     99.77% # Bytes accessed per row activation
system.mem_ctrls1.bytesPerActivate::1024-1151          226      0.23%    100.00% # Bytes accessed per row activation
system.mem_ctrls1.bytesPerActivate::total        98188                       # Bytes accessed per row activation
system.mem_ctrls1.rdPerTurnAround::samples          996                       # Reads before turning the bus around for writes
system.mem_ctrls1.rdPerTurnAround::mean    158.320281                       # Reads before turning the bus around for writes
system.mem_ctrls1.rdPerTurnAround::gmean    57.954129                       # Reads before turning the bus around for writes
system.mem_ctrls1.rdPerTurnAround::stdev  2146.752463                       # Reads before turning the bus around for writes
system.mem_ctrls1.rdPerTurnAround::0-4095          995     99.90%     99.90% # Reads before turning the bus around for writes
system.mem_ctrls1.rdPerTurnAround::65536-69631            1      0.10%    100.00% # Reads before turning the bus around for writes
system.mem_ctrls1.rdPerTurnAround::total          996                       # Reads before turning the bus around for writes
system.mem_ctrls1.wrPerTurnAround::samples          996                       # Writes before turning the bus around for reads
system.mem_ctrls1.wrPerTurnAround::mean     16.610442                       # Writes before turning the bus around for reads
system.mem_ctrls1.wrPerTurnAround::gmean    16.586109                       # Writes before turning the bus around for reads
system.mem_ctrls1.wrPerTurnAround::stdev     0.913798                       # Writes before turning the bus around for reads
system.mem_ctrls1.wrPerTurnAround::16             678     68.07%     68.07% # Writes before turning the bus around for reads
system.mem_ctrls1.wrPerTurnAround::17              35      3.51%     71.59% # Writes before turning the bus around for reads
system.mem_ctrls1.wrPerTurnAround::18             276     27.71%     99.30% # Writes before turning the bus around for reads
system.mem_ctrls1.wrPerTurnAround::19               7      0.70%    100.00% # Writes before turning the bus around for reads
system.mem_ctrls1.wrPerTurnAround::total          996                       # Writes before turning the bus around for reads
system.mem_ctrls1.totQLat                  4511624500                       # Total ticks spent queuing
system.mem_ctrls1.totMemAccLat             7468424500                       # Total ticks spent from burst creation until serviced by the DRAM
system.mem_ctrls1.totBusLat                 788480000                       # Total ticks spent in databus transfers
system.mem_ctrls1.avgQLat                    28609.63                       # Average queueing delay per DRAM burst
system.mem_ctrls1.avgBusLat                   5000.00                       # Average bus latency per DRAM burst
system.mem_ctrls1.avgMemAccLat               47359.63                       # Average memory access latency per DRAM burst
system.mem_ctrls1.avgRdBW                      628.86                       # Average DRAM read bandwidth in MiByte/s
system.mem_ctrls1.avgWrBW                       65.97                       # Average achieved write bandwidth in MiByte/s
system.mem_ctrls1.avgRdBWSys                   628.90                       # Average system read bandwidth in MiByte/s
system.mem_ctrls1.avgWrBWSys                    66.06                       # Average system write bandwidth in MiByte/s
system.mem_ctrls1.peakBW                     12800.00                       # Theoretical peak bandwidth in MiByte/s
system.mem_ctrls1.busUtil                        5.43                       # Data bus utilization in percentage
system.mem_ctrls1.busUtilRead                    4.91                       # Data bus utilization in percentage for reads
system.mem_ctrls1.busUtilWrite                   0.52                       # Data bus utilization in percentage for writes
system.mem_ctrls1.avgRdQLen                      1.55                       # Average read queue length when enqueuing
system.mem_ctrls1.avgWrQLen                     12.95                       # Average write queue length when enqueuing
system.mem_ctrls1.readRowHits                   72441                       # Number of row buffer hits during reads
system.mem_ctrls1.writeRowHits                   3605                       # Number of row buffer hits during writes
system.mem_ctrls1.readRowHitRate                45.94                       # Row buffer hit rate for reads
system.mem_ctrls1.writeRowHitRate               21.76                       # Row buffer hit rate for writes
system.mem_ctrls1.avgGap                     92087.96                       # Average gap between requests
system.mem_ctrls1.pageHitRate                   43.64                       # Row buffer hit rate, read and write combined
system.mem_ctrls1_0.actEnergy               333123840                       # Energy for activate commands per rank (pJ)
system.mem_ctrls1_0.preEnergy               177040545                       # Energy for precharge commands per rank (pJ)
system.mem_ctrls1_0.readEnergy              542697120                       # Energy for read commands per rank (pJ)
system.mem_ctrls1_0.writeEnergy              37317780                       # Energy for write commands per rank (pJ)
system.mem_ctrls1_0.refreshEnergy        1266773040.000000                       # Energy for refresh commands per rank (pJ)
system.mem_ctrls1_0.actBackEnergy          1466589480                       # Energy for active background per rank (pJ)
system.mem_ctrls1_0.preBackEnergy            33791040                       # Energy for precharge background per rank (pJ)
system.mem_ctrls1_0.actPowerDownEnergy     5413199940                       # Energy for active power-down per rank (pJ)
system.mem_ctrls1_0.prePowerDownEnergy      267600960                       # Energy for precharge power-down per rank (pJ)
system.mem_ctrls1_0.selfRefreshEnergy        56506545                       # Energy for self refresh per rank (pJ)
system.mem_ctrls1_0.totalEnergy            9595460160                       # Total energy per rank (pJ)
system.mem_ctrls1_0.averagePower           597.886866                       # Core power per rank (mW)
system.mem_ctrls1_0.totalIdleTime         12743513500                       # Total Idle time Per DRAM Rank
system.mem_ctrls1_0.memoryStateTime::IDLE     18496000                       # Time in different power states
system.mem_ctrls1_0.memoryStateTime::REF    536046000                       # Time in different power states
system.mem_ctrls1_0.memoryStateTime::SREF    175009250                       # Time in different power states
system.mem_ctrls1_0.memoryStateTime::PRE_PDN    696650750                       # Time in different power states
system.mem_ctrls1_0.memoryStateTime::ACT   2750751750                       # Time in different power states
system.mem_ctrls1_0.memoryStateTime::ACT_PDN  11872002250                       # Time in different power states
system.mem_ctrls1_1.actEnergy               367981320                       # Energy for activate commands per rank (pJ)
system.mem_ctrls1_1.preEnergy               195582915                       # Energy for precharge commands per rank (pJ)
system.mem_ctrls1_1.readEnergy              583252320                       # Energy for read commands per rank (pJ)
system.mem_ctrls1_1.writeEnergy              49041900                       # Energy for write commands per rank (pJ)
system.mem_ctrls1_1.refreshEnergy        1263699840.000000                       # Energy for refresh commands per rank (pJ)
system.mem_ctrls1_1.actBackEnergy          1553331510                       # Energy for active background per rank (pJ)
system.mem_ctrls1_1.preBackEnergy            33506400                       # Energy for precharge background per rank (pJ)
system.mem_ctrls1_1.actPowerDownEnergy     5382531660                       # Energy for active power-down per rank (pJ)
system.mem_ctrls1_1.prePowerDownEnergy      231839040                       # Energy for precharge power-down per rank (pJ)
system.mem_ctrls1_1.selfRefreshEnergy        43825515                       # Energy for self refresh per rank (pJ)
system.mem_ctrls1_1.totalEnergy            9704796930                       # Total energy per rank (pJ)
system.mem_ctrls1_1.averagePower           604.699569                       # Core power per rank (mW)
system.mem_ctrls1_1.totalIdleTime         12553553500                       # Total Idle time Per DRAM Rank
system.mem_ctrls1_1.memoryStateTime::IDLE     16381500                       # Time in different power states
system.mem_ctrls1_1.memoryStateTime::REF    534734000                       # Time in different power states
system.mem_ctrls1_1.memoryStateTime::SREF    147271750                       # Time in different power states
system.mem_ctrls1_1.memoryStateTime::PRE_PDN    603501500                       # Time in different power states
system.mem_ctrls1_1.memoryStateTime::ACT   2942685250                       # Time in different power states
system.mem_ctrls1_1.memoryStateTime::ACT_PDN  11804382000                       # Time in different power states
system.mem_ctrls2.pwrStateResidencyTicks::UNDEFINED  16048956000                       # Cumulative time (in ticks) in various power states
system.mem_ctrls2.bytes_read::ruby.dir_cntrl2     10101696                       # Number of bytes read from this memory
system.mem_ctrls2.bytes_read::total          10101696                       # Number of bytes read from this memory
system.mem_ctrls2.bytes_written::ruby.dir_cntrl2      1046528                       # Number of bytes written to this memory
system.mem_ctrls2.bytes_written::total        1046528                       # Number of bytes written to this memory
system.mem_ctrls2.num_reads::ruby.dir_cntrl2       157839                       # Number of read requests responded to by this memory
system.mem_ctrls2.num_reads::total             157839                       # Number of read requests responded to by this memory
system.mem_ctrls2.num_writes::ruby.dir_cntrl2        16352                       # Number of write requests responded to by this memory
system.mem_ctrls2.num_writes::total             16352                       # Number of write requests responded to by this memory
system.mem_ctrls2.bw_read::ruby.dir_cntrl2    629430101                       # Total read bandwidth from this memory (bytes/s)
system.mem_ctrls2.bw_read::total            629430101                       # Total read bandwidth from this memory (bytes/s)
system.mem_ctrls2.bw_write::ruby.dir_cntrl2     65208478                       # Write bandwidth from this memory (bytes/s)
system.mem_ctrls2.bw_write::total            65208478                       # Write bandwidth from this memory (bytes/s)
system.mem_ctrls2.bw_total::ruby.dir_cntrl2    694638580                       # Total bandwidth to/from this memory (bytes/s)
system.mem_ctrls2.bw_total::total           694638580                       # Total bandwidth to/from this memory (bytes/s)
system.mem_ctrls2.readReqs                     157839                       # Number of read requests accepted
system.mem_ctrls2.avgNetLat                      0.00                       # Average network latency to DRAM controller
system.mem_ctrls2.writeReqs                     16352                       # Number of write requests accepted
system.mem_ctrls2.readBursts                   157839                       # Number of DRAM read bursts, including those serviced by the write queue
system.mem_ctrls2.writeBursts                   16352                       # Number of DRAM write bursts, including those merged in the write queue
system.mem_ctrls2.bytesReadDRAM              10101376                       # Total number of bytes read from DRAM
system.mem_ctrls2.bytesReadWrQ                    320                       # Total number of bytes read from write queue
system.mem_ctrls2.bytesWritten                1045248                       # Total number of bytes written to DRAM
system.mem_ctrls2.bytesReadSys               10101696                       # Total read bytes from the system interface side
system.mem_ctrls2.bytesWrittenSys             1046528                       # Total written bytes from the system interface side
system.mem_ctrls2.servicedByWrQ                     5                       # Number of DRAM read bursts serviced by the write queue
system.mem_ctrls2.mergedWrBursts                    0                       # Number of DRAM write bursts merged with an existing one
system.mem_ctrls2.neitherReadNorWriteReqs            0                       # Number of requests that are neither read nor write
system.mem_ctrls2.perBankRdBursts::0            10143                       # Per bank write bursts
system.mem_ctrls2.perBankRdBursts::1             9658                       # Per bank write bursts
system.mem_ctrls2.perBankRdBursts::2             9549                       # Per bank write bursts
system.mem_ctrls2.perBankRdBursts::3             9474                       # Per bank write bursts
system.mem_ctrls2.perBankRdBursts::4             9385                       # Per bank write bursts
system.mem_ctrls2.perBankRdBursts::5             9058                       # Per bank write bursts
system.mem_ctrls2.perBankRdBursts::6             9194                       # Per bank write bursts
system.mem_ctrls2.perBankRdBursts::7             9589                       # Per bank write bursts
system.mem_ctrls2.perBankRdBursts::8             9407                       # Per bank write bursts
system.mem_ctrls2.perBankRdBursts::9             9881                       # Per bank write bursts
system.mem_ctrls2.perBankRdBursts::10           10495                       # Per bank write bursts
system.mem_ctrls2.perBankRdBursts::11           10315                       # Per bank write bursts
system.mem_ctrls2.perBankRdBursts::12           10682                       # Per bank write bursts
system.mem_ctrls2.perBankRdBursts::13           10764                       # Per bank write bursts
system.mem_ctrls2.perBankRdBursts::14           10181                       # Per bank write bursts
system.mem_ctrls2.perBankRdBursts::15           10059                       # Per bank write bursts
system.mem_ctrls2.perBankWrBursts::0             1123                       # Per bank write bursts
system.mem_ctrls2.perBankWrBursts::1              871                       # Per bank write bursts
system.mem_ctrls2.perBankWrBursts::2              913                       # Per bank write bursts
system.mem_ctrls2.perBankWrBursts::3              950                       # Per bank write bursts
system.mem_ctrls2.perBankWrBursts::4              846                       # Per bank write bursts
system.mem_ctrls2.perBankWrBursts::5              702                       # Per bank write bursts
system.mem_ctrls2.perBankWrBursts::6              722                       # Per bank write bursts
system.mem_ctrls2.perBankWrBursts::7              846                       # Per bank write bursts
system.mem_ctrls2.perBankWrBursts::8              847                       # Per bank write bursts
system.mem_ctrls2.perBankWrBursts::9             1001                       # Per bank write bursts
system.mem_ctrls2.perBankWrBursts::10            1374                       # Per bank write bursts
system.mem_ctrls2.perBankWrBursts::11            1245                       # Per bank write bursts
system.mem_ctrls2.perBankWrBursts::12            1329                       # Per bank write bursts
system.mem_ctrls2.perBankWrBursts::13            1280                       # Per bank write bursts
system.mem_ctrls2.perBankWrBursts::14            1081                       # Per bank write bursts
system.mem_ctrls2.perBankWrBursts::15            1202                       # Per bank write bursts
system.mem_ctrls2.numRdRetry                        0                       # Number of times read queue was full causing retry
system.mem_ctrls2.numWrRetry                        0                       # Number of times write queue was full causing retry
system.mem_ctrls2.totGap                  16048038500                       # Total gap between requests
system.mem_ctrls2.readPktSize::0                    0                       # Read request sizes (log2)
system.mem_ctrls2.readPktSize::1                    0                       # Read request sizes (log2)
system.mem_ctrls2.readPktSize::2                    0                       # Read request sizes (log2)
system.mem_ctrls2.readPktSize::3                    0                       # Read request sizes (log2)
system.mem_ctrls2.readPktSize::4                    0                       # Read request sizes (log2)
system.mem_ctrls2.readPktSize::5                    0                       # Read request sizes (log2)
system.mem_ctrls2.readPktSize::6               157839                       # Read request sizes (log2)
system.mem_ctrls2.writePktSize::0                   0                       # Write request sizes (log2)
system.mem_ctrls2.writePktSize::1                   0                       # Write request sizes (log2)
system.mem_ctrls2.writePktSize::2                   0                       # Write request sizes (log2)
system.mem_ctrls2.writePktSize::3                   0                       # Write request sizes (log2)
system.mem_ctrls2.writePktSize::4                   0                       # Write request sizes (log2)
system.mem_ctrls2.writePktSize::5                   0                       # Write request sizes (log2)
system.mem_ctrls2.writePktSize::6               16352                       # Write request sizes (log2)
system.mem_ctrls2.rdQLenPdf::0                  77684                       # What read queue length does an incoming req see
system.mem_ctrls2.rdQLenPdf::1                  39948                       # What read queue length does an incoming req see
system.mem_ctrls2.rdQLenPdf::2                  21214                       # What read queue length does an incoming req see
system.mem_ctrls2.rdQLenPdf::3                  10988                       # What read queue length does an incoming req see
system.mem_ctrls2.rdQLenPdf::4                   5033                       # What read queue length does an incoming req see
system.mem_ctrls2.rdQLenPdf::5                   1972                       # What read queue length does an incoming req see
system.mem_ctrls2.rdQLenPdf::6                    680                       # What read queue length does an incoming req see
system.mem_ctrls2.rdQLenPdf::7                    234                       # What read queue length does an incoming req see
system.mem_ctrls2.rdQLenPdf::8                     63                       # What read queue length does an incoming req see
system.mem_ctrls2.rdQLenPdf::9                     15                       # What read queue length does an incoming req see
system.mem_ctrls2.rdQLenPdf::10                     3                       # What read queue length does an incoming req see
system.mem_ctrls2.rdQLenPdf::11                     0                       # What read queue length does an incoming req see
system.mem_ctrls2.rdQLenPdf::12                     0                       # What read queue length does an incoming req see
system.mem_ctrls2.rdQLenPdf::13                     0                       # What read queue length does an incoming req see
system.mem_ctrls2.rdQLenPdf::14                     0                       # What read queue length does an incoming req see
system.mem_ctrls2.rdQLenPdf::15                     0                       # What read queue length does an incoming req see
system.mem_ctrls2.rdQLenPdf::16                     0                       # What read queue length does an incoming req see
system.mem_ctrls2.rdQLenPdf::17                     0                       # What read queue length does an incoming req see
system.mem_ctrls2.rdQLenPdf::18                     0                       # What read queue length does an incoming req see
system.mem_ctrls2.rdQLenPdf::19                     0                       # What read queue length does an incoming req see
system.mem_ctrls2.rdQLenPdf::20                     0                       # What read queue length does an incoming req see
system.mem_ctrls2.rdQLenPdf::21                     0                       # What read queue length does an incoming req see
system.mem_ctrls2.rdQLenPdf::22                     0                       # What read queue length does an incoming req see
system.mem_ctrls2.rdQLenPdf::23                     0                       # What read queue length does an incoming req see
system.mem_ctrls2.rdQLenPdf::24                     0                       # What read queue length does an incoming req see
system.mem_ctrls2.rdQLenPdf::25                     0                       # What read queue length does an incoming req see
system.mem_ctrls2.rdQLenPdf::26                     0                       # What read queue length does an incoming req see
system.mem_ctrls2.rdQLenPdf::27                     0                       # What read queue length does an incoming req see
system.mem_ctrls2.rdQLenPdf::28                     0                       # What read queue length does an incoming req see
system.mem_ctrls2.rdQLenPdf::29                     0                       # What read queue length does an incoming req see
system.mem_ctrls2.rdQLenPdf::30                     0                       # What read queue length does an incoming req see
system.mem_ctrls2.rdQLenPdf::31                     0                       # What read queue length does an incoming req see
system.mem_ctrls2.wrQLenPdf::0                      1                       # What write queue length does an incoming req see
system.mem_ctrls2.wrQLenPdf::1                      1                       # What write queue length does an incoming req see
system.mem_ctrls2.wrQLenPdf::2                      1                       # What write queue length does an incoming req see
system.mem_ctrls2.wrQLenPdf::3                      1                       # What write queue length does an incoming req see
system.mem_ctrls2.wrQLenPdf::4                      1                       # What write queue length does an incoming req see
system.mem_ctrls2.wrQLenPdf::5                      1                       # What write queue length does an incoming req see
system.mem_ctrls2.wrQLenPdf::6                      1                       # What write queue length does an incoming req see
system.mem_ctrls2.wrQLenPdf::7                      1                       # What write queue length does an incoming req see
system.mem_ctrls2.wrQLenPdf::8                      1                       # What write queue length does an incoming req see
system.mem_ctrls2.wrQLenPdf::9                      1                       # What write queue length does an incoming req see
system.mem_ctrls2.wrQLenPdf::10                     1                       # What write queue length does an incoming req see
system.mem_ctrls2.wrQLenPdf::11                     1                       # What write queue length does an incoming req see
system.mem_ctrls2.wrQLenPdf::12                     1                       # What write queue length does an incoming req see
system.mem_ctrls2.wrQLenPdf::13                     1                       # What write queue length does an incoming req see
system.mem_ctrls2.wrQLenPdf::14                     1                       # What write queue length does an incoming req see
system.mem_ctrls2.wrQLenPdf::15                   264                       # What write queue length does an incoming req see
system.mem_ctrls2.wrQLenPdf::16                   312                       # What write queue length does an incoming req see
system.mem_ctrls2.wrQLenPdf::17                   713                       # What write queue length does an incoming req see
system.mem_ctrls2.wrQLenPdf::18                   956                       # What write queue length does an incoming req see
system.mem_ctrls2.wrQLenPdf::19                  1005                       # What write queue length does an incoming req see
system.mem_ctrls2.wrQLenPdf::20                  1008                       # What write queue length does an incoming req see
system.mem_ctrls2.wrQLenPdf::21                  1005                       # What write queue length does an incoming req see
system.mem_ctrls2.wrQLenPdf::22                  1012                       # What write queue length does an incoming req see
system.mem_ctrls2.wrQLenPdf::23                  1006                       # What write queue length does an incoming req see
[...]
system.ruby.L2Cache_Controller.SS.L2_Replacement_clean |         527      5.91%      5.91% |         576      6.46%     12.37% |         595      6.67%     19.04% |         509      5.71%     24.75% |         537      6.02%     30.77% |         602      6.75%     37.52% |         597      6.70%     44.22% |         544      6.10%     50.32% |         614      6.89%     57.21% |         438      4.91%     62.12% |         507      5.69%     67.80% |         554      6.21%     74.02% |         559      6.27%     80.28% |         575      6.45%     86.73% |         646      7.24%     93.98% |         537      6.02%    100.00%
system.ruby.L2Cache_Controller.SS.L2_Replacement_clean::total         8917                      
system.ruby.L2Cache_Controller.M.L1_GET_INSTR |          14     25.00%     25.00% |           0      0.00%     25.00% |           0      0.00%     25.00% |           0      0.00%     25.00% |           0      0.00%     25.00% |           0      0.00%     25.00% |           0      0.00%     25.00% |           0      0.00%     25.00% |          14     25.00%     50.00% |          14     25.00%     75.00% |           0      0.00%     75.00% |           0      0.00%     75.00% |           0      0.00%     75.00% |           0      0.00%     75.00% |          14     25.00%    100.00% |           0      0.00%    100.00%
system.ruby.L2Cache_Controller.M.L1_GET_INSTR::total           56                      
system.ruby.L2Cache_Controller.M.L1_GETS |       10373      6.15%      6.15% |       10531      6.25%     12.40% |       10359      6.15%     18.55% |       10566      6.27%     24.81% |       10195      6.05%     30.86% |       10073      5.98%     36.84% |       10135      6.01%     42.85% |       10378      6.16%     49.01% |       10400      6.17%     55.17% |       10175      6.04%     61.21% |       10507      6.23%     67.44% |       11266      6.68%     74.13% |       11988      7.11%     81.24% |       10935      6.49%     87.73% |       10814      6.42%     94.14% |        9878      5.86%    100.00%
system.ruby.L2Cache_Controller.M.L1_GETS::total       168573                      
system.ruby.L2Cache_Controller.M.L1_GETX |        1269      5.86%      5.86% |        1369      6.33%     12.19% |        1331      6.15%     18.34% |        1287      5.95%     24.29% |        1304      6.03%     30.32% |        1223      5.65%     35.97% |        1185      5.48%     41.45% |        1340      6.19%     47.64% |        1254      5.80%     53.43% |        1296      5.99%     59.42% |        1287      5.95%     65.37% |        1271      5.87%     71.25% |        2441     11.28%     82.53% |        1170      5.41%     87.93% |        1277      5.90%     93.83% |        1334      6.17%    100.00%
system.ruby.L2Cache_Controller.M.L1_GETX::total        21638                      
system.ruby.L2Cache_Controller.M.L2_Replacement |        4126      6.29%      6.29% |        4120      6.28%     12.58% |        4010      6.12%     18.69% |        4103      6.26%     24.95% |        4074      6.21%     31.16% |        4101      6.25%     37.42% |        4068      6.20%     43.62% |        4056      6.19%     49.81% |        4178      6.37%     56.18% |        4068      6.20%     62.38% |        4039      6.16%     68.54% |        4081      6.22%     74.77% |        4137      6.31%     81.08% |        4169      6.36%     87.43% |        4127      6.29%     93.73% |        4112      6.27%    100.00%
system.ruby.L2Cache_Controller.M.L2_Replacement::total        65569                      
system.ruby.L2Cache_Controller.M.L2_Replacement_clean |        2923      6.32%      6.32% |        2825      6.11%     12.43% |        2771      5.99%     18.43% |        2892      6.26%     24.68% |        2797      6.05%     30.73% |        2848      6.16%     36.89% |        2889      6.25%     43.14% |        2954      6.39%     49.53% |        2944      6.37%     55.89% |        2816      6.09%     61.99% |        2893      6.26%     68.24% |        2861      6.19%     74.43% |        2984      6.45%     80.88% |        2943      6.37%     87.25% |        2956      6.39%     93.64% |        2939      6.36%    100.00%
system.ruby.L2Cache_Controller.M.L2_Replacement_clean::total        46235                      
system.ruby.L2Cache_Controller.MT.L1_GETS |          70      4.00%      4.00% |          70      4.00%      8.01% |          98      5.61%     13.62% |          98      5.61%     19.22% |          98      5.61%     24.83% |         140      8.01%     32.84% |         140      8.01%     40.85% |         140      8.01%     48.86% |         136      7.78%     56.64% |         136      7.78%     64.42% |         126      7.21%     71.62% |         132      7.55%     79.18% |         112      6.41%     85.58% |         112      6.41%     91.99% |          70      4.00%     96.00% |          70      4.00%    100.00%
system.ruby.L2Cache_Controller.MT.L1_GETS::total         1748                      
system.ruby.L2Cache_Controller.MT.L1_GETX |           0      0.00%      0.00% |           0      0.00%      0.00% |           0      0.00%      0.00% |           0      0.00%      0.00% |           0      0.00%      0.00% |           0      0.00%      0.00% |           0      0.00%      0.00% |           0      0.00%      0.00% |           2     13.33%     13.33% |           2     13.33%     26.67% |           7     46.67%     73.33% |           4     26.67%    100.00% |           0      0.00%    100.00% |           0      0.00%    100.00% |           0      0.00%    100.00% |           0      0.00%    100.00%
system.ruby.L2Cache_Controller.MT.L1_GETX::total           15                      
system.ruby.L2Cache_Controller.MT.L1_PUTX |       48902      6.22%      6.22% |       49008      6.24%     12.46% |       48559      6.18%     18.64% |       49074      6.25%     24.89% |       48516      6.18%     31.06% |       48467      6.17%     37.23% |       48570      6.18%     43.42% |       48994      6.24%     49.65% |       49045      6.24%     55.90% |       48581      6.18%     62.08% |       48979      6.23%     68.31% |       49731      6.33%     74.64% |       51904      6.61%     81.25% |       49506      6.30%     87.55% |       49338      6.28%     93.83% |       48466      6.17%    100.00%
system.ruby.L2Cache_Controller.MT.L1_PUTX::total       785640                      
system.ruby.L2Cache_Controller.MT.L2_Replacement |           3      4.76%      4.76% |           5      7.94%     12.70% |           8     12.70%     25.40% |           5      7.94%     33.33% |           6      9.52%     42.86% |           4      6.35%     49.21% |           4      6.35%     55.56% |           8     12.70%     68.25% |           1      1.59%     69.84% |           2      3.17%     73.02% |           3      4.76%     77.78% |           5      7.94%     85.71% |           4      6.35%     92.06% |           2      3.17%     95.24% |           2      3.17%     98.41% |           1      1.59%    100.00%
system.ruby.L2Cache_Controller.MT.L2_Replacement::total           63                      
system.ruby.L2Cache_Controller.MT.L2_Replacement_clean |          20      5.51%      5.51% |          20      5.51%     11.02% |          17      4.68%     15.70% |          20      5.51%     21.21% |          24      6.61%     27.82% |          23      6.34%     34.16% |          23      6.34%     40.50% |          20      5.51%     46.01% |          24      6.61%     52.62% |          27      7.44%     60.06% |          25      6.89%     66.94% |          17      4.68%     71.63% |          21      5.79%     77.41% |          26      7.16%     84.57% |          25      6.89%     91.46% |          31      8.54%    100.00%
system.ruby.L2Cache_Controller.MT.L2_Replacement_clean::total          363                      
system.ruby.L2Cache_Controller.M_I.Mem_Ack |        7601      6.27%      6.27% |        7547      6.23%     12.50% |        7401      6.11%     18.61% |        7532      6.22%     24.83% |        7438      6.14%     30.97% |        7579      6.26%     37.22% |        7584      6.26%     43.48% |        7583      6.26%     49.74% |        7762      6.41%     56.14% |        7351      6.07%     62.21% |        7468      6.16%     68.38% |        7518      6.20%     74.58% |        7707      6.36%     80.94% |        7716      6.37%     87.31% |        7757      6.40%     93.71% |        7620      6.29%    100.00%
system.ruby.L2Cache_Controller.M_I.Mem_Ack::total       121164                      
system.ruby.L2Cache_Controller.MT_I.WB_Data |           0      0.00%      0.00% |           1      5.00%      5.00% |           4     20.00%     25.00% |           0      0.00%     25.00% |           1      5.00%     30.00% |           1      5.00%     35.00% |           2     10.00%     45.00% |           3     15.00%     60.00% |           1      5.00%     65.00% |           1      5.00%     70.00% |           0      0.00%     70.00% |           2     10.00%     80.00% |           2     10.00%     90.00% |           0      0.00%     90.00% |           1      5.00%     95.00% |           1      5.00%    100.00%
system.ruby.L2Cache_Controller.MT_I.WB_Data::total           20                      
system.ruby.L2Cache_Controller.MT_I.Ack_all |           3      6.98%      6.98% |           4      9.30%     16.28% |           4      9.30%     25.58% |           5     11.63%     37.21% |           5     11.63%     48.84% |           3      6.98%     55.81% |           2      4.65%     60.47% |           5     11.63%     72.09% |           0      0.00%     72.09% |           1      2.33%     74.42% |           3      6.98%     81.40% |           3      6.98%     88.37% |           2      4.65%     93.02% |           2      4.65%     97.67% |           1      2.33%    100.00% |           0      0.00%    100.00%
system.ruby.L2Cache_Controller.MT_I.Ack_all::total           43                      
system.ruby.L2Cache_Controller.MCT_I.WB_Data |          20      5.81%      5.81% |          20      5.81%     11.63% |          17      4.94%     16.57% |          18      5.23%     21.80% |          21      6.10%     27.91% |          21      6.10%     34.01% |          23      6.69%     40.70% |          19      5.52%     46.22% |          22      6.40%     52.62% |          26      7.56%     60.17% |          22      6.40%     66.57% |          17      4.94%     71.51% |          19      5.52%     77.03% |          25      7.27%     84.30% |          24      6.98%     91.28% |          30      8.72%    100.00%
system.ruby.L2Cache_Controller.MCT_I.WB_Data::total          344                      
system.ruby.L2Cache_Controller.MCT_I.Ack_all |           0      0.00%      0.00% |           0      0.00%      0.00% |           0      0.00%      0.00% |           2     10.53%     10.53% |           3     15.79%     26.32% |           2     10.53%     36.84% |           0      0.00%     36.84% |           1      5.26%     42.11% |           2     10.53%     52.63% |           1      5.26%     57.89% |           3     15.79%     73.68% |           0      0.00%     73.68% |           2     10.53%     84.21% |           1      5.26%     89.47% |           1      5.26%     94.74% |           1      5.26%    100.00%
system.ruby.L2Cache_Controller.MCT_I.Ack_all::total           19                      
system.ruby.L2Cache_Controller.I_I.Ack_all |         527      5.91%      5.91% |         576      6.46%     12.37% |         595      6.67%     19.04% |         509      5.71%     24.75% |         537      6.02%     30.77% |         602      6.75%     37.52% |         597      6.70%     44.22% |         544      6.10%     50.32% |         614      6.89%     57.21% |         438      4.91%     62.12% |         507      5.69%     67.80% |         554      6.21%     74.02% |         559      6.27%     80.28% |         575      6.45%     86.73% |         646      7.24%     93.98% |         537      6.02%    100.00%
system.ruby.L2Cache_Controller.I_I.Ack_all::total         8917                      
system.ruby.L2Cache_Controller.S_I.Ack   |           2     11.76%     11.76% |           1      5.88%     17.65% |           0      0.00%     17.65% |           3     17.65%     35.29% |           0      0.00%     35.29% |           1      5.88%     41.18% |           3     17.65%     58.82% |           1      5.88%     64.71% |           1      5.88%     70.59% |           0      0.00%     70.59% |           1      5.88%     76.47% |           0      0.00%     76.47% |           2     11.76%     88.24% |           1      5.88%     94.12% |           1      5.88%    100.00% |           0      0.00%    100.00%
system.ruby.L2Cache_Controller.S_I.Ack::total           17                      
system.ruby.L2Cache_Controller.S_I.Ack_all |           2     11.76%     11.76% |           1      5.88%     17.65% |           0      0.00%     17.65% |           3     17.65%     35.29% |           0      0.00%     35.29% |           1      5.88%     41.18% |           3     17.65%     58.82% |           1      5.88%     64.71% |           1      5.88%     70.59% |           0      0.00%     70.59% |           1      5.88%     76.47% |           0      0.00%     76.47% |           2     11.76%     88.24% |           1      5.88%     94.12% |           1      5.88%    100.00% |           0      0.00%    100.00%
system.ruby.L2Cache_Controller.S_I.Ack_all::total           17                      
system.ruby.L2Cache_Controller.ISS.Mem_Data |       29181      6.27%      6.27% |       28949      6.22%     12.48% |       28672      6.16%     18.64% |       29085      6.24%     24.88% |       28866      6.20%     31.08% |       29056      6.24%     37.32% |       29132      6.26%     43.57% |       29150      6.26%     49.83% |       29311      6.29%     56.13% |       29058      6.24%     62.37% |       29099      6.25%     68.61% |       29153      6.26%     74.87% |       29418      6.32%     81.19% |       29315      6.29%     87.48% |       29143      6.26%     93.74% |       29148      6.26%    100.00%
system.ruby.L2Cache_Controller.ISS.Mem_Data::total       465736                      
system.ruby.L2Cache_Controller.IS.Mem_Data |        1352      6.38%      6.38% |        1353      6.39%     12.77% |        1493      7.05%     19.82% |        1289      6.08%     25.90% |        1350      6.37%     32.27% |        1337      6.31%     38.59% |        1280      6.04%     44.63% |        1288      6.08%     50.71% |        1369      6.46%     57.17% |        1161      5.48%     62.65% |        1250      5.90%     68.55% |        1266      5.98%     74.53% |        1234      5.83%     80.35% |        1303      6.15%     86.50% |        1516      7.16%     93.66% |        1343      6.34%    100.00%
system.ruby.L2Cache_Controller.IS.Mem_Data::total        21184                      
system.ruby.L2Cache_Controller.IM.Mem_Data |        9003      6.22%      6.22% |        9083      6.28%     12.50% |        9119      6.30%     18.80% |        9074      6.27%     25.07% |        9087      6.28%     31.35% |        9067      6.27%     37.62% |        9070      6.27%     43.89% |        9075      6.27%     50.16% |        9020      6.23%     56.39% |        9001      6.22%     62.61% |        9037      6.25%     68.86% |        8993      6.21%     75.07% |        8994      6.22%     81.29% |        9023      6.24%     87.52% |        9028      6.24%     93.76% |        9027      6.24%    100.00%
system.ruby.L2Cache_Controller.IM.Mem_Data::total       144701                      
system.ruby.L2Cache_Controller.SS_MB.Exclusive_Unblock |          42      3.95%      3.95% |          42      3.95%      7.90% |          70      6.59%     14.49% |          56      5.27%     19.76% |          56      5.27%     25.02% |          84      7.90%     32.93% |          84      7.90%     40.83% |          84      7.90%     48.73% |          82      7.71%     56.44% |          82      7.71%     64.16% |          77      7.24%     71.40% |          80      7.53%     78.93% |          70      6.59%     85.51% |          70      6.59%     92.10% |          42      3.95%     96.05% |          42      3.95%    100.00%
system.ruby.L2Cache_Controller.SS_MB.Exclusive_Unblock::total         1063                      
system.ruby.L2Cache_Controller.MT_MB.Exclusive_Unblock |       49826      6.22%      6.22% |       49932      6.24%     12.46% |       49481      6.18%     18.64% |       50012      6.25%     24.89% |       49452      6.18%     31.06% |       49419      6.17%     37.23% |       49522      6.19%     43.42% |       49943      6.24%     49.66% |       49987      6.24%     55.90% |       49532      6.19%     62.09% |       49937      6.24%     68.32% |       50687      6.33%     74.65% |       52841      6.60%     81.25% |       50443      6.30%     87.55% |       50262      6.28%     93.83% |       49387      6.17%    100.00%
system.ruby.L2Cache_Controller.MT_MB.Exclusive_Unblock::total       800663                      
system.ruby.L2Cache_Controller.MT_IIB.WB_Data |          70      4.04%      4.04% |          68      3.92%      7.96% |          96      5.54%     13.49% |          96      5.54%     19.03% |          98      5.65%     24.68% |         139      8.02%     32.70% |         139      8.02%     40.72% |         140      8.07%     48.79% |         134      7.73%     56.52% |         136      7.84%     64.36% |         124      7.15%     71.51% |         132      7.61%     79.12% |         111      6.40%     85.52% |         112      6.46%     91.98% |          70      4.04%     96.02% |          69      3.98%    100.00%
system.ruby.L2Cache_Controller.MT_IIB.WB_Data::total         1734                      
system.ruby.L2Cache_Controller.MT_IIB.Unblock |           0      0.00%      0.00% |           2     14.29%     14.29% |           2     14.29%     28.57% |           2     14.29%     42.86% |           0      0.00%     42.86% |           1      7.14%     50.00% |           1      7.14%     57.14% |           0      0.00%     57.14% |           2     14.29%     71.43% |           0      0.00%     71.43% |           2     14.29%     85.71% |           0      0.00%     85.71% |           1      7.14%     92.86% |           0      0.00%     92.86% |           0      0.00%     92.86% |           1      7.14%    100.00%
system.ruby.L2Cache_Controller.MT_IIB.Unblock::total           14                      
system.ruby.L2Cache_Controller.MT_IB.WB_Data |           0      0.00%      0.00% |           2     14.29%     14.29% |           2     14.29%     28.57% |           2     14.29%     42.86% |           0      0.00%     42.86% |           1      7.14%     50.00% |           1      7.14%     57.14% |           0      0.00%     57.14% |           2     14.29%     71.43% |           0      0.00%     71.43% |           2     14.29%     85.71% |           0      0.00%     85.71% |           1      7.14%     92.86% |           0      0.00%     92.86% |           0      0.00%     92.86% |           1      7.14%    100.00%
system.ruby.L2Cache_Controller.MT_IB.WB_Data::total           14                      
system.ruby.L2Cache_Controller.MT_SB.Unblock |          70      4.04%      4.04% |          68      3.92%      7.96% |          96      5.54%     13.49% |          96      5.54%     19.03% |          98      5.65%     24.68% |         139      8.02%     32.70% |         139      8.02%     40.72% |         140      8.07%     48.79% |         134      7.73%     56.52% |         136      7.84%     64.36% |         124      7.15%     71.51% |         132      7.61%     79.12% |         111      6.40%     85.52% |         112      6.46%     91.98% |          70      4.04%     96.02% |          69      3.98%    100.00%
system.ruby.L2Cache_Controller.MT_SB.Unblock::total         1734                      

---------- End Simulation Statistics   ----------
