
---------- Begin Simulation Statistics ----------
sim_seconds                                  0.015968                       # Number of seconds simulated
sim_ticks                                 15968214500                       # Number of ticks simulated
final_tick                                15968214500                       # Number of ticks from beginning of simulation (restored from checkpoints and never reset)
sim_freq                                 1000000000000                       # Frequency of simulated ticks
host_inst_rate                                  56040                       # Simulator instruction rate (inst/s)
host_op_rate                                    97222                       # Simulator op (including micro ops) rate (op/s)
host_tick_rate                               19390165                       # Simulator tick rate (ticks/s)
host_mem_usage                                2042188                       # Number of bytes of host memory used
host_seconds                                   823.52                       # Real time elapsed on the host
sim_insts                                    46149962                       # Number of instructions simulated
sim_ops                                      80064073                       # Number of ops (including micro ops) simulated
system.voltage_domain.voltage                       1                       # Voltage in Volts
system.clk_domain.clock                          1000                       # Clock period in ticks
system.mem_ctrls0.pwrStateResidencyTicks::UNDEFINED  15968214500                       # Cumulative time (in ticks) in various power states
system.mem_ctrls0.bytes_read::ruby.dir_cntrl0     10370240                       # Number of bytes read from this memory
system.mem_ctrls0.bytes_read::total          10370240                       # Number of bytes read from this memory
system.mem_ctrls0.bytes_written::ruby.dir_cntrl0      1283200                       # Number of bytes written to this memory
system.mem_ctrls0.bytes_written::total        1283200                       # Number of bytes written to this memory
system.mem_ctrls0.num_reads::ruby.dir_cntrl0       162035                       # Number of read requests responded to by this memory
system.mem_ctrls0.num_reads::total             162035                       # Number of read requests responded to by this memory
system.mem_ctrls0.num_writes::ruby.dir_cntrl0        20050                       # Number of write requests responded to by this memory
system.mem_ctrls0.num_writes::total             20050                       # Number of write requests responded to by this memory
system.mem_ctrls0.bw_read::ruby.dir_cntrl0    649430154                       # Total read bandwidth from this memory (bytes/s)
system.mem_ctrls0.bw_read::total            649430154                       # Total read bandwidth from this memory (bytes/s)
system.mem_ctrls0.bw_write::ruby.dir_cntrl0     80359642                       # Write bandwidth from this memory (bytes/s)
system.mem_ctrls0.bw_write::total            80359642                       # Write bandwidth from this memory (bytes/s)
system.mem_ctrls0.bw_total::ruby.dir_cntrl0    729789796                       # Total bandwidth to/from this memory (bytes/s)
system.mem_ctrls0.bw_total::total           729789796                       # Total bandwidth to/from this memory (bytes/s)
system.mem_ctrls0.readReqs                     162035                       # Number of read requests accepted
system.mem_ctrls0.avgNetLat                      0.00                       # Average network latency to DRAM controller
system.mem_ctrls0.writeReqs                     20050                       # Number of write requests accepted
system.mem_ctrls0.readBursts                   162035                       # Number of DRAM read bursts, including those serviced by the write queue
system.mem_ctrls0.writeBursts                   20050                       # Number of DRAM write bursts, including those merged in the write queue
system.mem_ctrls0.bytesReadDRAM              10369792                       # Total number of bytes read from DRAM
system.mem_ctrls0.bytesReadWrQ                    448                       # Total number of bytes read from write queue
system.mem_ctrls0.bytesWritten                1281728                       # Total number of bytes written to DRAM
system.mem_ctrls0.bytesReadSys               10370240                       # Total read bytes from the system interface side
system.mem_ctrls0.bytesWrittenSys             1283200                       # Total written bytes from the system interface side
system.mem_ctrls0.servicedByWrQ                     7                       # Number of DRAM read bursts serviced by the write queue
system.mem_ctrls0.mergedWrBursts                    0                       # Number of DRAM write bursts merged with an existing one
system.mem_ctrls0.neitherReadNorWriteReqs            0                       # Number of requests that are neither read nor write
system.mem_ctrls0.perBankRdBursts::0            10270                       # Per bank write bursts
system.mem_ctrls0.perBankRdBursts::1            10323                       # Per bank write bursts
system.mem_ctrls0.perBankRdBursts::2             9979                       # Per bank write bursts
system.mem_ctrls0.perBankRdBursts::3             9878                       # Per bank write bursts
system.mem_ctrls0.perBankRdBursts::4             9831                       # Per bank write bursts
system.mem_ctrls0.perBankRdBursts::5             9455                       # Per bank write bursts
system.mem_ctrls0.perBankRdBursts::6             9754                       # Per bank write bursts
system.mem_ctrls0.perBankRdBursts::7             9761                       # Per bank write bursts
system.mem_ctrls0.perBankRdBursts::8             9805                       # Per bank write bursts
system.mem_ctrls0.perBankRdBursts::9             9894                       # Per bank write bursts
system.mem_ctrls0.perBankRdBursts::10           10645                       # Per bank write bursts
system.mem_ctrls0.perBankRdBursts::11           10629                       # Per bank write bursts
system.mem_ctrls0.perBankRdBursts::12           10732                       # Per bank write bursts
system.mem_ctrls0.perBankRdBursts::13           10867                       # Per bank write bursts
system.mem_ctrls0.perBankRdBursts::14           10170                       # Per bank write bursts
system.mem_ctrls0.perBankRdBursts::15           10035                       # Per bank write bursts
system.mem_ctrls0.perBankWrBursts::0             1222                       # Per bank write bursts
system.mem_ctrls0.perBankWrBursts::1             1282                       # Per bank write bursts
system.mem_ctrls0.perBankWrBursts::2             1323                       # Per bank write bursts
system.mem_ctrls0.perBankWrBursts::3             1302                       # Per bank write bursts
system.mem_ctrls0.perBankWrBursts::4             1252                       # Per bank write bursts
system.mem_ctrls0.perBankWrBursts::5             1070                       # Per bank write bursts
system.mem_ctrls0.perBankWrBursts::6             1131                       # Per bank write bursts
system.mem_ctrls0.perBankWrBursts::7             1144                       # Per bank write bursts
system.mem_ctrls0.perBankWrBursts::8             1132                       # Per bank write bursts
system.mem_ctrls0.perBankWrBursts::9             1180                       # Per bank write bursts
system.mem_ctrls0.perBankWrBursts::10            1348                       # Per bank write bursts
system.mem_ctrls0.perBankWrBursts::11            1290                       # Per bank write bursts
system.mem_ctrls0.perBankWrBursts::12            1511                       # Per bank write bursts
system.mem_ctrls0.perBankWrBursts::13            1440                       # Per bank write bursts
system.mem_ctrls0.perBankWrBursts::14            1190                       # Per bank write bursts
system.mem_ctrls0.perBankWrBursts::15            1210                       # Per bank write bursts
system.mem_ctrls0.numRdRetry                        0                       # Number of times read queue was full causing retry
system.mem_ctrls0.numWrRetry                        0                       # Number of times write queue was full causing retry
system.mem_ctrls0.totGap                  15967113500                       # Total gap between requests
system.mem_ctrls0.readPktSize::0                    0                       # Read request sizes (log2)
system.mem_ctrls0.readPktSize::1                    0                       # Read request sizes (log2)
system.mem_ctrls0.readPktSize::2                    0                       # Read request sizes (log2)
system.mem_ctrls0.readPktSize::3                    0                       # Read request sizes (log2)
system.mem_ctrls0.readPktSize::4                    0                       # Read request sizes (log2)
system.mem_ctrls0.readPktSize::5                    0                       # Read request sizes (log2)
system.mem_ctrls0.readPktSize::6               162035                       # Read request sizes (log2)
system.mem_ctrls0.writePktSize::0                   0                       # Write request sizes (log2)
system.mem_ctrls0.writePktSize::1                   0                       # Write request sizes (log2)
system.mem_ctrls0.writePktSize::2                   0                       # Write request sizes (log2)
system.mem_ctrls0.writePktSize::3                   0                       # Write request sizes (log2)
system.mem_ctrls0.writePktSize::4                   0                       # Write request sizes (log2)
system.mem_ctrls0.writePktSize::5                   0                       # Write request sizes (log2)
system.mem_ctrls0.writePktSize::6               20050                       # Write request sizes (log2)
system.mem_ctrls0.rdQLenPdf::0                  78568                       # What read queue length does an incoming req see
system.mem_ctrls0.rdQLenPdf::1                  41552                       # What read queue length does an incoming req see
system.mem_ctrls0.rdQLenPdf::2                  21989                       # What read queue length does an incoming req see
system.mem_ctrls0.rdQLenPdf::3                  11190                       # What read queue length does an incoming req see
system.mem_ctrls0.rdQLenPdf::4                   5300                       # What read queue length does an incoming req see
system.mem_ctrls0.rdQLenPdf::5                   2218                       # What read queue length does an incoming req see
system.mem_ctrls0.rdQLenPdf::6                    838                       # What read queue length does an incoming req see
system.mem_ctrls0.rdQLenPdf::7                    283                       # What read queue length does an incoming req see
system.mem_ctrls0.rdQLenPdf::8                     72                       # What read queue length does an incoming req see
system.mem_ctrls0.rdQLenPdf::9                     16                       # What read queue length does an incoming req see
system.mem_ctrls0.rdQLenPdf::10                     1                       # What read queue length does an incoming req see
system.mem_ctrls0.rdQLenPdf::11                     1                       # What read queue length does an incoming req see
system.mem_ctrls0.rdQLenPdf::12                     0                       # What read queue length does an incoming req see
system.mem_ctrls0.rdQLenPdf::13                     0                       # What read queue length does an incoming req see
system.mem_ctrls0.rdQLenPdf::14                     0                       # What read queue length does an incoming req see
system.mem_ctrls0.rdQLenPdf::15                     0                       # What read queue length does an incoming req see
system.mem_ctrls0.rdQLenPdf::16                     0                       # What read queue length does an incoming req see
system.mem_ctrls0.rdQLenPdf::17                     0                       # What read queue length does an incoming req see
system.mem_ctrls0.rdQLenPdf::18                     0                       # What read queue length does an incoming req see
system.mem_ctrls0.rdQLenPdf::19                     0                       # What read queue length does an incoming req see
system.mem_ctrls0.rdQLenPdf::20                     0                       # What read queue length does an incoming req see
system.mem_ctrls0.rdQLenPdf::21                     0                       # What read queue length does an incoming req see
system.mem_ctrls0.rdQLenPdf::22                     0                       # What read queue length does an incoming req see
system.mem_ctrls0.rdQLenPdf::23                     0                       # What read queue length does an incoming req see
system.mem_ctrls0.rdQLenPdf::24                     0                       # What read queue length does an incoming req see
system.mem_ctrls0.rdQLenPdf::25                     0                       # What read queue length does an incoming req see
system.mem_ctrls0.rdQLenPdf::26                     0                       # What read queue length does an incoming req see
system.mem_ctrls0.rdQLenPdf::27                     0                       # What read queue length does an incoming req see
system.mem_ctrls0.rdQLenPdf::28                     0                       # What read queue length does an incoming req see
system.mem_ctrls0.rdQLenPdf::29                     0                       # What read queue length does an incoming req see
system.mem_ctrls0.rdQLenPdf::30                     0                       # What read queue length does an incoming req see
system.mem_ctrls0.rdQLenPdf::31                     0                       # What read queue length does an incoming req see
system.mem_ctrls0.wrQLenPdf::0                      1                       # What write queue length does an incoming req see
system.mem_ctrls0.wrQLenPdf::1                      1                       # What write queue length does an incoming req see
system.mem_ctrls0.wrQLenPdf::2                      1                       # What write queue length does an incoming req see
system.mem_ctrls0.wrQLenPdf::3                      1                       # What write queue length does an incoming req see
system.mem_ctrls0.wrQLenPdf::4                      1                       # What write queue length does an incoming req see
system.mem_ctrls0.wrQLenPdf::5                      1                       # What write queue length does an incoming req see
system.mem_ctrls0.wrQLenPdf::6                      1                       # What write queue length does an incoming req see
system.mem_ctrls0.wrQLenPdf::7                      1                       # What write queue length does an incoming req see
system.mem_ctrls0.wrQLenPdf::8                      1                       # What write queue length does an incoming req see
system.mem_ctrls0.wrQLenPdf::9                      1                       # What write queue length does an incoming req see
system.mem_ctrls0.wrQLenPdf::10                     1                       # What write queue length does an incoming req see
system.mem_ctrls0.wrQLenPdf::11                     1                       # What write queue length does an incoming req see
system.mem_ctrls0.wrQLenPdf::12                     1                       # What write queue length does an incoming req see
system.mem_ctrls0.wrQLenPdf::13                     1                       # What write queue length does an incoming req see
system.mem_ctrls0.wrQLenPdf::14                     1                       # What write queue length does an incoming req see
system.mem_ctrls0.wrQLenPdf::15                   304                       # What write queue length does an incoming req see
system.mem_ctrls0.wrQLenPdf::16                   362                       # What write queue length does an incoming req see
system.mem_ctrls0.wrQLenPdf::17                   782                       # What write queue length does an incoming req see
system.mem_ctrls0.wrQLenPdf::18                  1141                       # What write queue length does an incoming req see
system.mem_ctrls0.wrQLenPdf::19                  1231                       # What write queue length does an incoming req see
system.mem_ctrls0.wrQLenPdf::20                  1256                       # What write queue length does an incoming req see
system.mem_ctrls0.wrQLenPdf::21                  1248                       # What write queue length does an incoming req see
system.mem_ctrls0.wrQLenPdf::22                  1259                       # What write queue length does an incoming req see
system.mem_ctrls0.wrQLenPdf::23                  1239                       # What write queue length does an incoming req see
system.mem_ctrls0.wrQLenPdf::24                  1246                       # What write queue length does an incoming req see
system.mem_ctrls0.wrQLenPdf::25                  1238                       # What write queue length does an incoming req see
system.mem_ctrls0.wrQLenPdf::26                  1254                       # What write queue length does an incoming req see
system.mem_ctrls0.wrQLenPdf::27                  1234                       # What write queue length does an incoming req see
system.mem_ctrls0.wrQLenPdf::28                  1236                       # What write queue length does an incoming req see
system.mem_ctrls0.wrQLenPdf::29                  1250                       # What write queue length does an incoming req see
system.mem_ctrls0.wrQLenPdf::30                  1241                       # What write queue length does an incoming req see
system.mem_ctrls0.wrQLenPdf::31                  1238                       # What write queue length does an incoming req see
system.mem_ctrls0.wrQLenPdf::32                  1231                       # What write queue length does an incoming req see
system.mem_ctrls0.wrQLenPdf::33                    37                       # What write queue length does an incoming req see
system.mem_ctrls0.wrQLenPdf::34                     5                       # What write queue length does an incoming req see
system.mem_ctrls0.wrQLenPdf::35                     3                       # What write queue length does an incoming req see
system.mem_ctrls0.wrQLenPdf::36                     0                       # What write queue length does an incoming req see
system.mem_ctrls0.wrQLenPdf::37                     0                       # What write queue length does an incoming req see
system.mem_ctrls0.wrQLenPdf::38                     0                       # What write queue length does an incoming req see
system.mem_ctrls0.wrQLenPdf::39                     0                       # What write queue length does an incoming req see
system.mem_ctrls0.wrQLenPdf::40                     0                       # What write queue length does an incoming req see
system.mem_ctrls0.wrQLenPdf::41                     0                       # What write queue length does an incoming req see
system.mem_ctrls0.wrQLenPdf::42                     0                       # What write queue length does an incoming req see
system.mem_ctrls0.wrQLenPdf::43                     0                       # What write queue length does an incoming req see
system.mem_ctrls0.wrQLenPdf::44                     0                       # What write queue length does an incoming req see
system.mem_ctrls0.wrQLenPdf::45                     0                       # What write queue length does an incoming req see
system.mem_ctrls0.wrQLenPdf::46                     0                       # What write queue length does an incoming req see
system.mem_ctrls0.wrQLenPdf::47                     0                       # What write queue length does an incoming req see
system.mem_ctrls0.wrQLenPdf::48                     0                       # What write queue length does an incoming req see
system.mem_ctrls0.wrQLenPdf::49                     0                       # What write queue length does an incoming req see
system.mem_ctrls0.wrQLenPdf::50                     0                       # What write queue length does an incoming req see
system.mem_ctrls0.wrQLenPdf::51                     0                       # What write queue length does an incoming req see
system.mem_ctrls0.wrQLenPdf::52                     0                       # What write queue length does an incoming req see
system.mem_ctrls0.wrQLenPdf::53                     0                       # What write queue length does an incoming req see
system.mem_ctrls0.wrQLenPdf::54                     0                       # What write queue length does an incoming req see
system.mem_ctrls0.wrQLenPdf::55                     0                       # What write queue length does an incoming req see
system.mem_ctrls0.wrQLenPdf::56                     0                       # What write queue length does an incoming req see
system.mem_ctrls0.wrQLenPdf::57                     0                       # What write queue length does an incoming req see
system.mem_ctrls0.wrQLenPdf::58                     0                       # What write queue length does an incoming req see
system.mem_ctrls0.wrQLenPdf::59                     0                       # What write queue length does an incoming req see
system.mem_ctrls0.wrQLenPdf::60                     0                       # What write queue length does an incoming req see
system.mem_ctrls0.wrQLenPdf::61                     0                       # What write queue length does an incoming req see
system.mem_ctrls0.wrQLenPdf::62                     0                       # What write queue length does an incoming req see
system.mem_ctrls0.wrQLenPdf::63                     0                       # What write queue length does an incoming req see
system.mem_ctrls0.bytesPerActivate::samples       106469                       # Bytes accessed per row activation
system.mem_ctrls0.bytesPerActivate::mean   109.430388                       # Bytes accessed per row activation
system.mem_ctrls0.bytesPerActivate::gmean    86.584462                       # Bytes accessed per row activation
system.mem_ctrls0.bytesPerActivate::stdev   114.078523                       # Bytes accessed per row activation
system.mem_ctrls0.bytesPerActivate::0-127        76915     72.24%     72.24% # Bytes accessed per row activation
system.mem_ctrls0.bytesPerActivate::128-255        20097     18.88%     91.12% # Bytes accessed per row activation
system.mem_ctrls0.bytesPerActivate::256-383         4129      3.88%     95.00% # Bytes accessed per row activation
system.mem_ctrls0.bytesPerActivate::384-511         2328      2.19%     97.18% # Bytes accessed per row activation
system.mem_ctrls0.bytesPerActivate::512-639         1464      1.38%     98.56% # Bytes accessed per row activation
system.mem_ctrls0.bytesPerActivate::640-767         1044      0.98%     99.54% # Bytes accessed per row activation
system.mem_ctrls0.bytesPerActivate::768-895          225      0.21%     99.75% # Bytes accessed per row activation
system.mem_ctrls0.bytesPerActivate::896-1023          118      0.11%     99.86% # Bytes accessed per row activation
system.mem_ctrls0.bytesPerActivate::1024-1151          149      0.14%    100.00% # Bytes accessed per row activation
system.mem_ctrls0.bytesPerActivate::total       106469                       # Bytes accessed per row activation
system.mem_ctrls0.rdPerTurnAround::samples         1208                       # Reads before turning the bus around for writes
system.mem_ctrls0.rdPerTurnAround::mean    134.120033                       # Reads before turning the bus around for writes
system.mem_ctrls0.rdPerTurnAround::gmean    47.591078                       # Reads before turning the bus around for writes
system.mem_ctrls0.rdPerTurnAround::stdev  1880.706631                       # Reads before turning the bus around for writes
system.mem_ctrls0.rdPerTurnAround::0-2047         1206     99.83%     99.83% # Reads before turning the bus around for writes
system.mem_ctrls0.rdPerTurnAround::2048-4095            1      0.08%     99.92% # Reads before turning the bus around for writes
system.mem_ctrls0.rdPerTurnAround::63488-65535            1      0.08%    100.00% # Reads before turning the bus around for writes
system.mem_ctrls0.rdPerTurnAround::total         1208                       # Reads before turning the bus around for writes
system.mem_ctrls0.wrPerTurnAround::samples         1208                       # Writes before turning the bus around for reads
system.mem_ctrls0.wrPerTurnAround::mean     16.578642                       # Writes before turning the bus around for reads
system.mem_ctrls0.wrPerTurnAround::gmean    16.555132                       # Writes before turning the bus around for reads
system.mem_ctrls0.wrPerTurnAround::stdev     0.898553                       # Writes before turning the bus around for reads
system.mem_ctrls0.wrPerTurnAround::16             840     69.54%     69.54% # Writes before turning the bus around for reads
system.mem_ctrls0.wrPerTurnAround::17              45      3.73%     73.26% # Writes before turning the bus around for reads
system.mem_ctrls0.wrPerTurnAround::18             316     26.16%     99.42% # Writes before turning the bus around for reads
system.mem_ctrls0.wrPerTurnAround::19               6      0.50%     99.92% # Writes before turning the bus around for reads
system.mem_ctrls0.wrPerTurnAround::20               1      0.08%    100.00% # Writes before turning the bus around for reads
system.mem_ctrls0.wrPerTurnAround::total         1208                       # Writes before turning the bus around for reads
system.mem_ctrls0.totQLat                  4721200500                       # Total ticks spent queuing
system.mem_ctrls0.totMemAccLat             7759225500                       # Total ticks spent from burst creation until serviced by the DRAM
system.mem_ctrls0.totBusLat                 810140000                       # Total ticks spent in databus transfers
system.mem_ctrls0.avgQLat                    29138.18                       # Average queueing delay per DRAM burst
system.mem_ctrls0.avgBusLat                   5000.00                       # Average bus latency per DRAM burst
system.mem_ctrls0.avgMemAccLat               47888.18                       # Average memory access latency per DRAM burst
system.mem_ctrls0.avgRdBW                      649.40                       # Average DRAM read bandwidth in MiByte/s
system.mem_ctrls0.avgWrBW                       80.27                       # Average achieved write bandwidth in MiByte/s
system.mem_ctrls0.avgRdBWSys                   649.43                       # Average system read bandwidth in MiByte/s
system.mem_ctrls0.avgWrBWSys                    80.36                       # Average system write bandwidth in MiByte/s
system.mem_ctrls0.peakBW                     12800.00                       # Theoretical peak bandwidth in MiByte/s
system.mem_ctrls0.busUtil                        5.70                       # Data bus utilization in percentage
system.mem_ctrls0.busUtilRead                    5.07                       # Data bus utilization in percentage for reads
system.mem_ctrls0.busUtilWrite                   0.63                       # Data bus utilization in percentage for writes
system.mem_ctrls0.avgRdQLen                      1.58                       # Average read queue length when enqueuing
system.mem_ctrls0.avgWrQLen                     12.97                       # Average write queue length when enqueuing
system.mem_ctrls0.readRowHits                   71534                       # Number of row buffer hits during reads
system.mem_ctrls0.writeRowHits                   4049                       # Number of row buffer hits during writes
system.mem_ctrls0.readRowHitRate                44.15                       # Row buffer hit rate for reads
system.mem_ctrls0.writeRowHitRate               20.19                       # Row buffer hit rate for writes
system.mem_ctrls0.avgGap                     87690.44                       # Average gap between requests
system.mem_ctrls0.pageHitRate                   41.51                       # Row buffer hit rate, read and write combined
system.mem_ctrls0_0.actEnergy               365839320                       # Energy for activate commands per rank (pJ)
system.mem_ctrls0_0.preEnergy               194448210                       # Energy for precharge commands per rank (pJ)
system.mem_ctrls0_0.readEnergy              565852140                       # Energy for read commands per rank (pJ)
system.mem_ctrls0_0.writeEnergy              50769720                       # Energy for write commands per rank (pJ)
system.mem_ctrls0_0.refreshEnergy        1246489920.000000                       # Energy for refresh commands per rank (pJ)
system.mem_ctrls0_0.actBackEnergy          1490031300                       # Energy for active background per rank (pJ)
system.mem_ctrls0_0.preBackEnergy            35576640                       # Energy for precharge background per rank (pJ)
system.mem_ctrls0_0.actPowerDownEnergy     5354211780                       # Energy for active power-down per rank (pJ)
system.mem_ctrls0_0.prePowerDownEnergy      228530400                       # Energy for precharge power-down per rank (pJ)
system.mem_ctrls0_0.selfRefreshEnergy        72250620                       # Energy for self refresh per rank (pJ)
system.mem_ctrls0_0.totalEnergy            9604000050                       # Total energy per rank (pJ)
system.mem_ctrls0_0.averagePower           601.444811                       # Core power per rank (mW)
system.mem_ctrls0_0.totalIdleTime         12607606000                       # Total Idle time Per DRAM Rank
system.mem_ctrls0_0.memoryStateTime::IDLE     14321000                       # Time in different power states
system.mem_ctrls0_0.memoryStateTime::REF    527382000                       # Time in different power states
system.mem_ctrls0_0.memoryStateTime::SREF    271131750                       # Time in different power states
system.mem_ctrls0_0.memoryStateTime::PRE_PDN    595211250                       # Time in different power states
system.mem_ctrls0_0.memoryStateTime::ACT   2818364250                       # Time in different power states
system.mem_ctrls0_0.memoryStateTime::ACT_PDN  11741804250                       # Time in different power states
system.mem_ctrls0_1.actEnergy               394370760                       # Energy for activate commands per rank (pJ)
system.mem_ctrls0_1.preEnergy               209601645                       # Energy for precharge commands per rank (pJ)
system.mem_ctrls0_1.readEnergy              591027780                       # Energy for read commands per rank (pJ)
system.mem_ctrls0_1.writeEnergy              53771220                       # Energy for write commands per rank (pJ)
system.mem_ctrls0_1.refreshEnergy        1248333840.000000                       # Energy for refresh commands per rank (pJ)
system.mem_ctrls0_1.actBackEnergy          1575209250                       # Energy for active background per rank (pJ)
system.mem_ctrls0_1.preBackEnergy            35945280                       # Energy for precharge background per rank (pJ)
system.mem_ctrls0_1.actPowerDownEnergy     5296966110                       # Energy for active power-down per rank (pJ)
system.mem_ctrls0_1.prePowerDownEnergy      226356000                       # Energy for precharge power-down per rank (pJ)
system.mem_ctrls0_1.selfRefreshEnergy        56469060                       # Energy for self refresh per rank (pJ)
system.mem_ctrls0_1.totalEnergy            9688050945                       # Total energy per rank (pJ)
system.mem_ctrls0_1.averagePower           606.708448                       # Core power per rank (mW)
system.mem_ctrls0_1.totalIdleTime         12419596250                       # Total Idle time Per DRAM Rank
system.mem_ctrls0_1.memoryStateTime::IDLE     13756500                       # Time in different power states
system.mem_ctrls0_1.memoryStateTime::REF    528138000                       # Time in different power states
system.mem_ctrls0_1.memoryStateTime::SREF    214576750                       # Time in different power states
system.mem_ctrls0_1.memoryStateTime::PRE_PDN    589262500                       # Time in different power states
system.mem_ctrls0_1.memoryStateTime::ACT   3005741000                       # Time in different power states
system.mem_ctrls0_1.memoryStateTime::ACT_PDN  11616739750                       # Time in different power states
system.mem_ctrls1.pwrStateResidencyTicks::UNDEFINED  15968214500                       # Cumulative time (in ticks) in various power states
system.mem_ctrls1.bytes_read::ruby.dir_cntrl1     10344256                       # Number of bytes read from this memory
system.mem_ctrls1.bytes_read::total          10344256                       # Number of bytes read from this memory
system.mem_ctrls1.bytes_written::ruby.dir_cntrl1      1280448                       # Number of bytes written to this memory
system.mem_ctrls1.bytes_written::total        1280448                       # Number of bytes written to this memory
system.mem_ctrls1.num_reads::ruby.dir_cntrl1       161629                       # Number of read requests responded to by this memory
system.mem_ctrls1.num_reads::total             161629                       # Number of read requests responded to by this memory
system.mem_ctrls1.num_writes::ruby.dir_cntrl1        20007                       # Number of write requests responded to by this memory
system.mem_ctrls1.num_writes::total             20007                       # Number of write requests responded to by this memory
system.mem_ctrls1.bw_read::ruby.dir_cntrl1    647802921                       # Total read bandwidth from this memory (bytes/s)
system.mem_ctrls1.bw_read::total            647802921                       # Total read bandwidth from this memory (bytes/s)
system.mem_ctrls1.bw_write::ruby.dir_cntrl1     80187300                       # Write bandwidth from this memory (bytes/s)
system.mem_ctrls1.bw_write::total            80187300                       # Write bandwidth from this memory (bytes/s)
system.mem_ctrls1.bw_total::ruby.dir_cntrl1    727990221                       # Total bandwidth to/from this memory (bytes/s)
system.mem_ctrls1.bw_total::total           727990221                       # Total bandwidth to/from this memory (bytes/s)
system.mem_ctrls1.readReqs                     161629                       # Number of read requests accepted
system.mem_ctrls1.avgNetLat                      0.00                       # Average network latency to DRAM controller
system.mem_ctrls1.writeReqs                     20007                       # Number of write requests accepted
system.mem_ctrls1.readBursts                   161629                       # Number of DRAM read bursts, including those serviced by the write queue
system.mem_ctrls1.writeBursts                   20007                       # Number of DRAM write bursts, including those merged in the write queue
system.mem_ctrls1.bytesReadDRAM              10344000                       # Total number of bytes read from DRAM
system.mem_ctrls1.bytesReadWrQ                    256                       # Total number of bytes read from write queue
system.mem_ctrls1.bytesWritten                1278784                       # Total number of bytes written to DRAM
system.mem_ctrls1.bytesReadSys               10344256                       # Total read bytes from the system interface side
system.mem_ctrls1.bytesWrittenSys             1280448                       # Total written bytes from the system interface side
system.mem_ctrls1.servicedByWrQ                     4                       # Number of DRAM read bursts serviced by the write queue
system.mem_ctrls1.mergedWrBursts                    0                       # Number of DRAM write bursts merged with an existing one
system.mem_ctrls1.neitherReadNorWriteReqs            0                       # Number of requests that are neither read nor write
system.mem_ctrls1.perBankRdBursts::0            10193                       # Per bank write bursts
system.mem_ctrls1.perBankRdBursts::1            10236                       # Per bank write bursts
system.mem_ctrls1.perBankRdBursts::2             9956                       # Per bank write bursts
system.mem_ctrls1.perBankRdBursts::3             9838                       # Per bank write bursts
system.mem_ctrls1.perBankRdBursts::4             9813                       # Per bank write bursts
system.mem_ctrls1.perBankRdBursts::5             9418                       # Per bank write bursts
system.mem_ctrls1.perBankRdBursts::6             9773                       # Per bank write bursts
system.mem_ctrls1.perBankRdBursts::7             9761                       # Per bank write bursts
system.mem_ctrls1.perBankRdBursts::8             9792                       # Per bank write bursts
system.mem_ctrls1.perBankRdBursts::9             9875                       # Per bank write bursts
system.mem_ctrls1.perBankRdBursts::10           10578                       # Per bank write bursts
system.mem_ctrls1.perBankRdBursts::11           10648                       # Per bank write bursts
system.mem_ctrls1.perBankRdBursts::12           10703                       # Per bank write bursts
system.mem_ctrls1.perBankRdBursts::13           10853                       # Per bank write bursts
system.mem_ctrls1.perBankRdBursts::14           10169                       # Per bank write bursts
system.mem_ctrls1.perBankRdBursts::15           10019                       # Per bank write bursts
system.mem_ctrls1.perBankWrBursts::0             1211                       # Per bank write bursts
system.mem_ctrls1.perBankWrBursts::1             1278                       # Per bank write bursts
system.mem_ctrls1.perBankWrBursts::2             1287                       # Per bank write bursts
system.mem_ctrls1.perBankWrBursts::3             1265                       # Per bank write bursts
system.mem_ctrls1.perBankWrBursts::4             1248                       # Per bank write bursts
system.mem_ctrls1.perBankWrBursts::5             1048                       # Per bank write bursts
system.mem_ctrls1.perBankWrBursts::6             1139                       # Per bank write bursts
system.mem_ctrls1.perBankWrBursts::7             1153                       # Per bank write bursts
system.mem_ctrls1.perBankWrBursts::8             1149                       # Per bank write bursts
system.mem_ctrls1.perBankWrBursts::9             1170                       # Per bank write bursts
system.mem_ctrls1.perBankWrBursts::10            1341                       # Per bank write bursts
system.mem_ctrls1.perBankWrBursts::11            1324                       # Per bank write bursts
system.mem_ctrls1.perBankWrBursts::12            1514                       # Per bank write bursts
system.mem_ctrls1.perBankWrBursts::13            1458                       # Per bank write bursts
system.mem_ctrls1.perBankWrBursts::14            1207                       # Per bank write bursts
system.mem_ctrls1.perBankWrBursts::15            1189                       # Per bank write bursts
system.mem_ctrls1.numRdRetry                        0                       # Number of times read queue was full causing retry
system.mem_ctrls1.numWrRetry                        0                       # Number of times write queue was full causing retry
system.mem_ctrls1.totGap                  15967638000                       # Total gap between requests
system.mem_ctrls1.readPktSize::0                    0                       # Read request sizes (log2)
system.mem_ctrls1.readPktSize::1                    0                       # Read request sizes (log2)
system.mem_ctrls1.readPktSize::2                    0                       # Read request sizes (log2)
system.mem_ctrls1.readPktSize::3                    0                       # Read request sizes (log2)
system.mem_ctrls1.readPktSize::4                    0                       # Read request sizes (log2)
system.mem_ctrls1.readPktSize::5                    0                       # Read request sizes (log2)
system.mem_ctrls1.readPktSize::6               161629                       # Read request sizes (log2)
system.mem_ctrls1.writePktSize::0                   0                       # Write request sizes (log2)
system.mem_ctrls1.writePktSize::1                   0                       # Write request sizes (log2)
system.mem_ctrls1.writePktSize::2                   0                       # Write request sizes (log2)
system.mem_ctrls1.writePktSize::3                   0                       # Write request sizes (log2)
system.mem_ctrls1.writePktSize::4                   0                       # Write request sizes (log2)
system.mem_ctrls1.writePktSize::5                   0                       # Write request sizes (log2)
system.mem_ctrls1.writePktSize::6               20007                       # Write request sizes (log2)
system.mem_ctrls1.rdQLenPdf::0                  79155                       # What read queue length does an incoming req see
system.mem_ctrls1.rdQLenPdf::1                  41481                       # What read queue length does an incoming req see
system.mem_ctrls1.rdQLenPdf::2                  21564                       # What read queue length does an incoming req see
system.mem_ctrls1.rdQLenPdf::3                  10975                       # What read queue length does an incoming req see
system.mem_ctrls1.rdQLenPdf::4                   5155                       # What read queue length does an incoming req see
system.mem_ctrls1.rdQLenPdf::5                   2136                       # What read queue length does an incoming req see
system.mem_ctrls1.rdQLenPdf::6                    802                       # What read queue length does an incoming req see
system.mem_ctrls1.rdQLenPdf::7                    255                       # What read queue length does an incoming req see
system.mem_ctrls1.rdQLenPdf::8                     70                       # What read queue length does an incoming req see
system.mem_ctrls1.rdQLenPdf::9                     26                       # What read queue length does an incoming req see
system.mem_ctrls1.rdQLenPdf::10                     5                       # What read queue length does an incoming req see
system.mem_ctrls1.rdQLenPdf::11                     1                       # What read queue length does an incoming req see
system.mem_ctrls1.rdQLenPdf::12                     0                       # What read queue length does an incoming req see
system.mem_ctrls1.rdQLenPdf::13                     0                       # What read queue length does an incoming req see
system.mem_ctrls1.rdQLenPdf::14                     0                       # What read queue length does an incoming req see
system.mem_ctrls1.rdQLenPdf::15                     0                       # What read queue length does an incoming req see
system.mem_ctrls1.rdQLenPdf::16                     0                       # What read queue length does an incoming req see
system.mem_ctrls1.rdQLenPdf::17                     0                       # What read queue length does an incoming req see
system.mem_ctrls1.rdQLenPdf::18                     0                       # What read queue length does an incoming req see
system.mem_ctrls1.rdQLenPdf::19                     0                       # What read queue length does an incoming req see
system.mem_ctrls1.rdQLenPdf::20                     0                       # What read queue length does an incoming req see
system.mem_ctrls1.rdQLenPdf::21                     0                       # What read queue length does an incoming req see
system.mem_ctrls1.rdQLenPdf::22                     0                       # What read queue length does an incoming req see
system.mem_ctrls1.rdQLenPdf::23                     0                       # What read queue length does an incoming req see
system.mem_ctrls1.rdQLenPdf::24                     0                       # What read queue length does an incoming req see
system.mem_ctrls1.rdQLenPdf::25                     0                       # What read queue length does an incoming req see
system.mem_ctrls1.rdQLenPdf::26                     0                       # What read queue length does an incoming req see
system.mem_ctrls1.rdQLenPdf::27                     0                       # What read queue length does an incoming req see
system.mem_ctrls1.rdQLenPdf::28                     0                       # What read queue length does an incoming req see
system.mem_ctrls1.rdQLenPdf::29                     0                       # What read queue length does an incoming req see
system.mem_ctrls1.rdQLenPdf::30                     0                       # What read queue length does an incoming req see
system.mem_ctrls1.rdQLenPdf::31                     0                       # What read queue length does an incoming req see
system.mem_ctrls1.wrQLenPdf::0                      1                       # What write queue length does an incoming req see
system.mem_ctrls1.wrQLenPdf::1                      1                       # What write queue length does an incoming req see
system.mem_ctrls1.wrQLenPdf::2                      1                       # What write queue length does an incoming req see
system.mem_ctrls1.wrQLenPdf::3                      1                       # What write queue length does an incoming req see
system.mem_ctrls1.wrQLenPdf::4                      1                       # What write queue length does an incoming req see
system.mem_ctrls1.wrQLenPdf::5                      1                       # What write queue length does an incoming req see
system.mem_ctrls1.wrQLenPdf::6                      1                       # What write queue length does an incoming req see
system.mem_ctrls1.wrQLenPdf::7                      1                       # What write queue length does an incoming req see
system.mem_ctrls1.wrQLenPdf::8                      1                       # What write queue length does an incoming req see
system.mem_ctrls1.wrQLenPdf::9                      1                       # What write queue length does an incoming req see
system.mem_ctrls1.wrQLenPdf::10                     1                       # What write queue length does an incoming req see
system.mem_ctrls1.wrQLenPdf::11                     1                       # What write queue length does an incoming req see
system.mem_ctrls1.wrQLenPdf::12                     1                       # What write queue length does an incoming req see
system.mem_ctrls1.wrQLenPdf::13                     1                       # What write queue length does an incoming req see
system.mem_ctrls1.wrQLenPdf::14                     1                       # What write queue length does an incoming req see
system.mem_ctrls1.wrQLenPdf::15                   292                       # What write queue length does an incoming req see
system.mem_ctrls1.wrQLenPdf::16                   346                       # What write queue length does an incoming req see
system.mem_ctrls1.wrQLenPdf::17                   789                       # What write queue length does an incoming req see
system.mem_ctrls1.wrQLenPdf::18                  1151                       # What write queue length does an incoming req see
system.mem_ctrls1.wrQLenPdf::19                  1240                       # What write queue length does an incoming req see
system.mem_ctrls1.wrQLenPdf::20                  1257                       # What write queue length does an incoming req see
system.mem_ctrls1.wrQLenPdf::21                  1253                       # What write queue length does an incoming req see
system.mem_ctrls1.wrQLenPdf::22                  1249                       # What write queue length does an incoming req see
system.mem_ctrls1.wrQLenPdf::23                  1243                       # What write queue length does an incoming req see
system.mem_ctrls1.wrQLenPdf::24                  1230                       # What write queue length does an incoming req see
system.mem_ctrls1.wrQLenPdf::25                  1246                       # What write queue length does an incoming req see
system.mem_ctrls1.wrQLenPdf::26                  1243                       # What write queue length does an incoming req see
system.mem_ctrls1.wrQLenPdf::27                  1239                       # What write queue length does an incoming req see
system.mem_ctrls1.wrQLenPdf::28                  1242                       # What write queue length does an incoming req see
system.mem_ctrls1.wrQLenPdf::29                  1245                       # What write queue length does an incoming req see
system.mem_ctrls1.wrQLenPdf::30                  1231                       # What write queue length does an incoming req see
system.mem_ctrls1.wrQLenPdf::31                  1230                       # What write queue length does an incoming req see
system.mem_ctrls1.wrQLenPdf::32                  1228                       # What write queue length does an incoming req see
system.mem_ctrls1.wrQLenPdf::33                    33                       # What write queue length does an incoming req see
system.mem_ctrls1.wrQLenPdf::34                     3                       # What write queue length does an incoming req see
system.mem_ctrls1.wrQLenPdf::35                     2                       # What write queue length does an incoming req see
system.mem_ctrls1.wrQLenPdf::36                     0                       # What write queue length does an incoming req see
system.mem_ctrls1.wrQLenPdf::37                     0                       # What write queue length does an incoming req see
system.mem_ctrls1.wrQLenPdf::38                     0                       # What write queue length does an incoming req see
system.mem_ctrls1.wrQLenPdf::39                     0                       # What write queue length does an incoming req see
system.mem_ctrls1.wrQLenPdf::40                     0                       # What write queue length does an incoming req see
system.mem_ctrls1.wrQLenPdf::41                     0                       # What write queue length does an incoming req see
system.mem_ctrls1.wrQLenPdf::42                     0                       # What write queue length does an incoming req see
system.mem_ctrls1.wrQLenPdf::43                     0                       # What write queue length does an incoming req see
system.mem_ctrls1.wrQLenPdf::44                     0                       # What write queue length does an incoming req see
system.mem_ctrls1.wrQLenPdf::45                     0                       # What write queue length does an incoming req see
system.mem_ctrls1.wrQLenPdf::46                     0                       # What write queue length does an incoming req see
system.mem_ctrls1.wrQLenPdf::47                     0                       # What write queue length does an incoming req see
system.mem_ctrls1.wrQLenPdf::48                     0                       # What write queue length does an incoming req see
system.mem_ctrls1.wrQLenPdf::49                     0                       # What write queue length does an incoming req see
system.mem_ctrls1.wrQLenPdf::50                     0                       # What write queue length does an incoming req see
system.mem_ctrls1.wrQLenPdf::51                     0                       # What write queue length does an incoming req see
system.mem_ctrls1.wrQLenPdf::52                     0                       # What write queue length does an incoming req see
system.mem_ctrls1.wrQLenPdf::53                     0                       # What write queue length does an incoming req see
system.mem_ctrls1.wrQLenPdf::54                     0                       # What write queue length does an incoming req see
system.mem_ctrls1.wrQLenPdf::55                     0                       # What write queue length does an incoming req see
system.mem_ctrls1.wrQLenPdf::56                     0                       # What write queue length does an incoming req see
system.mem_ctrls1.wrQLenPdf::57                     0                       # What write queue length does an incoming req see
system.mem_ctrls1.wrQLenPdf::58                     0                       # What write queue length does an incoming req see
system.mem_ctrls1.wrQLenPdf::59                     0                       # What write queue length does an incoming req see
system.mem_ctrls1.wrQLenPdf::60                     0                       # What write queue length does an incoming req see
system.mem_ctrls1.wrQLenPdf::61                     0                       # What write queue length does an incoming req see
system.mem_ctrls1.wrQLenPdf::62                     0                       # What write queue length does an incoming req see
system.mem_ctrls1.wrQLenPdf::63                     0                       # What write queue length does an incoming req see
system.mem_ctrls1.bytesPerActivate::samples       105911                       # Bytes accessed per row activation
system.mem_ctrls1.bytesPerActivate::mean   109.736817                       # Bytes accessed per row activation
system.mem_ctrls1.bytesPerActivate::gmean    86.744027                       # Bytes accessed per row activation
system.mem_ctrls1.bytesPerActivate::stdev   115.056577                       # Bytes accessed per row activation
system.mem_ctrls1.bytesPerActivate::0-127        76200     71.95%     71.95% # Bytes accessed per row activation
system.mem_ctrls1.bytesPerActivate::128-255        20344     19.21%     91.16% # Bytes accessed per row activation
system.mem_ctrls1.bytesPerActivate::256-383         4050      3.82%     94.98% # Bytes accessed per row activation
system.mem_ctrls1.bytesPerActivate::384-511         2321      2.19%     97.17% # Bytes accessed per row activation
system.mem_ctrls1.bytesPerActivate::512-639         1413      1.33%     98.51% # Bytes accessed per row activation
system.mem_ctrls1.bytesPerActivate::640-767         1051      0.99%     99.50% # Bytes accessed per row activation
system.mem_ctrls1.bytesPerActivate::768-895          231      0.22%     99.72% # Bytes accessed per row activation
system.mem_ctrls1.bytesPerActivate::896-1023          138      0.13%     99.85% # Bytes accessed per row activation
system.mem_ctrls1.bytesPerActivate::1024-1151          163      0.15%    100.00% # Bytes accessed per row activation
system.mem_ctrls1.bytesPerActivate::total       105911                       # Bytes accessed per row activation
system.mem_ctrls1.rdPerTurnAround::samples         1207                       # Reads before turning the bus around for writes
system.mem_ctrls1.rdPerTurnAround::mean    133.888981                       # Reads before turning the bus around for writes
system.mem_ctrls1.rdPerTurnAround::gmean    46.918131                       # Reads before turning the bus around for writes
system.mem_ctrls1.rdPerTurnAround::stdev  1912.928800                       # Reads before turning the bus around for writes
system.mem_ctrls1.rdPerTurnAround::0-4095         1206     99.92%     99.92% # Reads before turning the bus around for writes
system.mem_ctrls1.rdPerTurnAround::65536-69631            1      0.08%    100.00% # Reads before turning the bus around for writes
system.mem_ctrls1.rdPerTurnAround::total         1207                       # Reads before turning the bus around for writes
system.mem_ctrls1.wrPerTurnAround::samples         1207                       # Writes before turning the bus around for reads
system.mem_ctrls1.wrPerTurnAround::mean     16.554267                       # Writes before turning the bus around for reads
system.mem_ctrls1.wrPerTurnAround::gmean    16.531565                       # Writes before turning the bus around for reads
system.mem_ctrls1.wrPerTurnAround::stdev     0.882949                       # Writes before turning the bus around for reads
system.mem_ctrls1.wrPerTurnAround::16             851     70.51%     70.51% # Writes before turning the bus around for reads
system.mem_ctrls1.wrPerTurnAround::17              51      4.23%     74.73% # Writes before turning the bus around for reads
system.mem_ctrls1.wrPerTurnAround::18             297     24.61%     99.34% # Writes before turning the bus around for reads
system.mem_ctrls1.wrPerTurnAround::19               8      0.66%    100.00% # Writes before turning the bus around for reads
system.mem_ctrls1.wrPerTurnAround::total         1207                       # Writes before turning the bus around for reads
system.mem_ctrls1.totQLat                  4646028250                       # Total ticks spent queuing
system.mem_ctrls1.totMemAccLat             7676497000                       # Total ticks spent from burst creation until serviced by the DRAM
system.mem_ctrls1.totBusLat                 808125000                       # Total ticks spent in databus transfers
system.mem_ctrls1.avgQLat                    28745.73                       # Average queueing delay per DRAM burst
system.mem_ctrls1.avgBusLat                   5000.00                       # Average bus latency per DRAM burst
system.mem_ctrls1.avgMemAccLat               47495.73                       # Average memory access latency per DRAM burst
system.mem_ctrls1.avgRdBW                      647.79                       # Average DRAM read bandwidth in MiByte/s
system.mem_ctrls1.avgWrBW                       80.08                       # Average achieved write bandwidth in MiByte/s
system.mem_ctrls1.avgRdBWSys                   647.80                       # Average system read bandwidth in MiByte/s
system.mem_ctrls1.avgWrBWSys                    80.19                       # Average system write bandwidth in MiByte/s
system.mem_ctrls1.peakBW                     12800.00                       # Theoretical peak bandwidth in MiByte/s
system.mem_ctrls1.busUtil                        5.69                       # Data bus utilization in percentage
system.mem_ctrls1.busUtilRead                    5.06                       # Data bus utilization in percentage for reads
system.mem_ctrls1.busUtilWrite                   0.63                       # Data bus utilization in percentage for writes
system.mem_ctrls1.avgRdQLen                      1.56                       # Average read queue length when enqueuing
system.mem_ctrls1.avgWrQLen                     13.08                       # Average write queue length when enqueuing
system.mem_ctrls1.readRowHits                   71623                       # Number of row buffer hits during reads
system.mem_ctrls1.writeRowHits                   4070                       # Number of row buffer hits during writes
system.mem_ctrls1.readRowHitRate                44.31                       # Row buffer hit rate for reads
system.mem_ctrls1.writeRowHitRate               20.34                       # Row buffer hit rate for writes
system.mem_ctrls1.avgGap                     87910.09                       # Average gap between requests
system.mem_ctrls1.pageHitRate                   41.67                       # Row buffer hit rate, read and write combined
system.mem_ctrls1_0.actEnergy               362861940                       # Energy for activate commands per rank (pJ)
system.mem_ctrls1_0.preEnergy               192861900                       # Energy for precharge commands per rank (pJ)
system.mem_ctrls1_0.readEnergy              563974320                       # Energy for read commands per rank (pJ)
system.mem_ctrls1_0.writeEnergy              50263380                       # Energy for write commands per rank (pJ)
system.mem_ctrls1_0.refreshEnergy        1245260640.000000                       # Energy for refresh commands per rank (pJ)
system.mem_ctrls1_0.actBackEnergy          1483332660                       # Energy for active background per rank (pJ)
system.mem_ctrls1_0.preBackEnergy            36312960                       # Energy for precharge background per rank (pJ)
system.mem_ctrls1_0.actPowerDownEnergy     5346286500                       # Energy for active power-down per rank (pJ)
system.mem_ctrls1_0.prePowerDownEnergy      239750400                       # Energy for precharge power-down per rank (pJ)
system.mem_ctrls1_0.selfRefreshEnergy        71370240                       # Energy for self refresh per rank (pJ)
system.mem_ctrls1_0.totalEnergy            9592274940                       # Total energy per rank (pJ)
system.mem_ctrls1_0.averagePower           600.710533                       # Core power per rank (mW)
system.mem_ctrls1_0.totalIdleTime         12621139500                       # Total Idle time Per DRAM Rank
system.mem_ctrls1_0.memoryStateTime::IDLE     15305500                       # Time in different power states
system.mem_ctrls1_0.memoryStateTime::REF    526832000                       # Time in different power states
system.mem_ctrls1_0.memoryStateTime::SREF    272065500                       # Time in different power states
system.mem_ctrls1_0.memoryStateTime::PRE_PDN    624142250                       # Time in different power states
system.mem_ctrls1_0.memoryStateTime::ACT   2804797000                       # Time in different power states
system.mem_ctrls1_0.memoryStateTime::ACT_PDN  11725072250                       # Time in different power states
system.mem_ctrls1_1.actEnergy               393356880                       # Energy for activate commands per rank (pJ)
system.mem_ctrls1_1.preEnergy               209070345                       # Energy for precharge commands per rank (pJ)
system.mem_ctrls1_1.readEnergy              590028180                       # Energy for read commands per rank (pJ)
system.mem_ctrls1_1.writeEnergy              54037440                       # Energy for write commands per rank (pJ)
system.mem_ctrls1_1.refreshEnergy        1246489920.000000                       # Energy for refresh commands per rank (pJ)
system.mem_ctrls1_1.actBackEnergy          1578788280                       # Energy for active background per rank (pJ)
system.mem_ctrls1_1.preBackEnergy            36139200                       # Energy for precharge background per rank (pJ)
system.mem_ctrls1_1.actPowerDownEnergy     5317023840                       # Energy for active power-down per rank (pJ)
system.mem_ctrls1_1.prePowerDownEnergy      199256640                       # Energy for precharge power-down per rank (pJ)
system.mem_ctrls1_1.selfRefreshEnergy        60292320                       # Energy for self refresh per rank (pJ)
system.mem_ctrls1_1.totalEnergy            9684487365                       # Total energy per rank (pJ)
system.mem_ctrls1_1.averagePower           606.485281                       # Core power per rank (mW)
system.mem_ctrls1_1.totalIdleTime         12411571750                       # Total Idle time Per DRAM Rank
system.mem_ctrls1_1.memoryStateTime::IDLE     14144500                       # Time in different power states
system.mem_ctrls1_1.memoryStateTime::REF    527340000                       # Time in different power states
system.mem_ctrls1_1.memoryStateTime::SREF    232799500                       # Time in different power states
system.mem_ctrls1_1.memoryStateTime::PRE_PDN    518673750                       # Time in different power states
system.mem_ctrls1_1.memoryStateTime::ACT   3014687500                       # Time in different power states
system.mem_ctrls1_1.memoryStateTime::ACT_PDN  11660569250                       # Time in different power states
system.mem_ctrls2.pwrStateResidencyTicks::UNDEFINED  15968214500                       # Cumulative time (in ticks) in various power states
system.mem_ctrls2.bytes_read::ruby.dir_cntrl2     10364608                       # Number of bytes read from this memory
system.mem_ctrls2.bytes_read::total          10364608                       # Number of bytes read from this memory
system.mem_ctrls2.bytes_written::ruby.dir_cntrl2      1281920                       # Number of bytes written to this memory
system.mem_ctrls2.bytes_written::total        1281920                       # Number of bytes written to this memory
system.mem_ctrls2.num_reads::ruby.dir_cntrl2       161947                       # Number of read requests responded to by this memory
system.mem_ctrls2.num_reads::total             161947                       # Number of read requests responded to by this memory
system.mem_ctrls2.num_writes::ruby.dir_cntrl2        20030                       # Number of write requests responded to by this memory
system.mem_ctrls2.num_writes::total             20030                       # Number of write requests responded to by this memory
system.mem_ctrls2.bw_read::ruby.dir_cntrl2    649077453                       # Total read bandwidth from this memory (bytes/s)
system.mem_ctrls2.bw_read::total            649077453                       # Total read bandwidth from this memory (bytes/s)
system.mem_ctrls2.bw_write::ruby.dir_cntrl2     80279483                       # Write bandwidth from this memory (bytes/s)
system.mem_ctrls2.bw_write::total            80279483                       # Write bandwidth from this memory (bytes/s)
system.mem_ctrls2.bw_total::ruby.dir_cntrl2    729356936                       # Total bandwidth to/from this memory (bytes/s)
system.mem_ctrls2.bw_total::total           729356936                       # Total bandwidth to/from this memory (bytes/s)
system.mem_ctrls2.readReqs                     161947                       # Number of read requests accepted
system.mem_ctrls2.avgNetLat                      0.00                       # Average network latency to DRAM controller
system.mem_ctrls2.writeReqs                     20030                       # Number of write requests accepted
system.mem_ctrls2.readBursts                   161947                       # Number of DRAM read bursts, including those serviced by the write queue
system.mem_ctrls2.writeBursts                   20030                       # Number of DRAM write bursts, including those merged in the write queue
system.mem_ctrls2.bytesReadDRAM              10364288                       # Total number of bytes read from DRAM
system.mem_ctrls2.bytesReadWrQ                    320                       # Total number of bytes read from write queue
system.mem_ctrls2.bytesWritten                1280064                       # Total number of bytes written to DRAM
system.mem_ctrls2.bytesReadSys               10364608                       # Total read bytes from the system interface side
system.mem_ctrls2.bytesWrittenSys             1281920                       # Total written bytes from the system interface side
system.mem_ctrls2.servicedByWrQ                     5                       # Number of DRAM read bursts serviced by the write queue
system.mem_ctrls2.mergedWrBursts                    0                       # Number of DRAM write bursts merged with an existing one
system.mem_ctrls2.neitherReadNorWriteReqs            0                       # Number of requests that are neither read nor write
system.mem_ctrls2.perBankRdBursts::0            10174                       # Per bank write bursts
system.mem_ctrls2.perBankRdBursts::1            10229                       # Per bank write bursts
system.mem_ctrls2.perBankRdBursts::2            10000                       # Per bank write bursts
system.mem_ctrls2.perBankRdBursts::3             9859                       # Per bank write bursts
system.mem_ctrls2.perBankRdBursts::4             9806                       # Per bank write bursts
system.mem_ctrls2.perBankRdBursts::5             9432                       # Per bank write bursts
system.mem_ctrls2.perBankRdBursts::6             9734                       # Per bank write bursts
system.mem_ctrls2.perBankRdBursts::7             9771                       # Per bank write bursts
system.mem_ctrls2.perBankRdBursts::8             9846                       # Per bank write bursts
system.mem_ctrls2.perBankRdBursts::9             9857                       # Per bank write bursts
system.mem_ctrls2.perBankRdBursts::10           10636                       # Per bank write bursts
system.mem_ctrls2.perBankRdBursts::11           10658                       # Per bank write bursts
system.mem_ctrls2.perBankRdBursts::12           10714                       # Per bank write bursts
system.mem_ctrls2.perBankRdBursts::13           10954                       # Per bank write bursts
system.mem_ctrls2.perBankRdBursts::14           10218                       # Per bank write bursts
system.mem_ctrls2.perBankRdBursts::15           10054                       # Per bank write bursts
system.mem_ctrls2.perBankWrBursts::0             1209                       # Per bank write bursts
system.mem_ctrls2.perBankWrBursts::1             1265                       # Per bank write bursts
system.mem_ctrls2.perBankWrBursts::2             1303                       # Per bank write bursts
system.mem_ctrls2.perBankWrBursts::3             1306                       # Per bank write bursts
system.mem_ctrls2.perBankWrBursts::4             1219                       # Per bank write bursts
system.mem_ctrls2.perBankWrBursts::5             1077                       # Per bank write bursts
system.mem_ctrls2.perBankWrBursts::6             1128                       # Per bank write bursts
system.mem_ctrls2.perBankWrBursts::7             1128                       # Per bank write bursts
system.mem_ctrls2.perBankWrBursts::8             1177                       # Per bank write bursts
system.mem_ctrls2.perBankWrBursts::9             1144                       # Per bank write bursts
system.mem_ctrls2.perBankWrBursts::10            1328                       # Per bank write bursts
system.mem_ctrls2.perBankWrBursts::11            1327                       # Per bank write bursts
system.mem_ctrls2.perBankWrBursts::12            1514                       # Per bank write bursts
system.mem_ctrls2.perBankWrBursts::13            1486                       # Per bank write bursts
system.mem_ctrls2.perBankWrBursts::14            1202                       # Per bank write bursts
system.mem_ctrls2.perBankWrBursts::15            1188                       # Per bank write bursts
system.mem_ctrls2.numRdRetry                        0                       # Number of times read queue was full causing retry
system.mem_ctrls2.numWrRetry                        0                       # Number of times write queue was full causing retry
system.mem_ctrls2.totGap                  15967275000                       # Total gap between requests
system.mem_ctrls2.readPktSize::0                    0                       # Read request sizes (log2)
system.mem_ctrls2.readPktSize::1                    0                       # Read request sizes (log2)
system.mem_ctrls2.readPktSize::2                    0                       # Read request sizes (log2)
system.mem_ctrls2.readPktSize::3                    0                       # Read request sizes (log2)
system.mem_ctrls2.readPktSize::4                    0                       # Read request sizes (log2)
system.mem_ctrls2.readPktSize::5                    0                       # Read request sizes (log2)
system.mem_ctrls2.readPktSize::6               161947                       # Read request sizes (log2)
system.mem_ctrls2.writePktSize::0                   0                       # Write request sizes (log2)
system.mem_ctrls2.writePktSize::1                   0                       # Write request sizes (log2)
system.mem_ctrls2.writePktSize::2                   0                       # Write request sizes (log2)
system.mem_ctrls2.writePktSize::3                   0                       # Write request sizes (log2)
system.mem_ctrls2.writePktSize::4                   0                       # Write request sizes (log2)
system.mem_ctrls2.writePktSize::5                   0                       # Write request sizes (log2)
system.mem_ctrls2.writePktSize::6               20030                       # Write request sizes (log2)
system.mem_ctrls2.rdQLenPdf::0                  78513                       # What read queue length does an incoming req see
system.mem_ctrls2.rdQLenPdf::1                  41558                       # What read queue length does an incoming req see
system.mem_ctrls2.rdQLenPdf::2                  21963                       # What read queue length does an incoming req see
system.mem_ctrls2.rdQLenPdf::3                  11237                       # What read queue length does an incoming req see
system.mem_ctrls2.rdQLenPdf::4                   5189                       # What read queue length does an incoming req see
system.mem_ctrls2.rdQLenPdf::5                   2213                       # What read queue length does an incoming req see
system.mem_ctrls2.rdQLenPdf::6                    882                       # What read queue length does an incoming req see
system.mem_ctrls2.rdQLenPdf::7                    291                       # What read queue length does an incoming req see
system.mem_ctrls2.rdQLenPdf::8                     79                       # What read queue length does an incoming req see
system.mem_ctrls2.rdQLenPdf::9                     12                       # What read queue length does an incoming req see
system.mem_ctrls2.rdQLenPdf::10                     5                       # What read queue length does an incoming req see
system.mem_ctrls2.rdQLenPdf::11                     0                       # What read queue length does an incoming req see
system.mem_ctrls2.rdQLenPdf::12                     0                       # What read queue length does an incoming req see
system.mem_ctrls2.rdQLenPdf::13                     0                       # What read queue length does an incoming req see
system.mem_ctrls2.rdQLenPdf::14                     0                       # What read queue length does an incoming req see
system.mem_ctrls2.rdQLenPdf::15                     0                       # What read queue length does an incoming req see
system.mem_ctrls2.rdQLenPdf::16                     0                       # What read queue length does an incoming req see
system.mem_ctrls2.rdQLenPdf::17                     0                       # What read queue length does an incoming req see
system.mem_ctrls2.rdQLenPdf::18                     0                       # What read queue length does an incoming req see
system.mem_ctrls2.rdQLenPdf::19                     0                       # What read queue length does an incoming req see
system.mem_ctrls2.rdQLenPdf::20                     0                       # What read queue length does an incoming req see
system.mem_ctrls2.rdQLenPdf::21                     0                       # What read queue length does an incoming req see
system.mem_ctrls2.rdQLenPdf::22                     0                       # What read queue length does an incoming req see
system.mem_ctrls2.rdQLenPdf::23                     0                       # What read queue length does an incoming req see
system.mem_ctrls2.rdQLenPdf::24                     0                       # What read queue length does an incoming req see
system.mem_ctrls2.rdQLenPdf::25                     0                       # What read queue length does an incoming req see
system.mem_ctrls2.rdQLenPdf::26                     0                       # What read queue length does an incoming req see
system.mem_ctrls2.rdQLenPdf::27                     0                       # What read queue length does an incoming req see
system.mem_ctrls2.rdQLenPdf::28                     0                       # What read queue length does an incoming req see
system.mem_ctrls2.rdQLenPdf::29                     0                       # What read queue length does an incoming req see
system.mem_ctrls2.rdQLenPdf::30                     0                       # What read queue length does an incoming req see
system.mem_ctrls2.rdQLenPdf::31                     0                       # What read queue length does an incoming req see
system.mem_ctrls2.wrQLenPdf::0                      1                       # What write queue length does an incoming req see
system.mem_ctrls2.wrQLenPdf::1                      1                       # What write queue length does an incoming req see
system.mem_ctrls2.wrQLenPdf::2                      1                       # What write queue length does an incoming req see
system.mem_ctrls2.wrQLenPdf::3                      1                       # What write queue length does an incoming req see
system.mem_ctrls2.wrQLenPdf::4                      1                       # What write queue length does an incoming req see
system.mem_ctrls2.wrQLenPdf::5                      1                       # What write queue length does an incoming req see
system.mem_ctrls2.wrQLenPdf::6                      1                       # What write queue length does an incoming req see
system.mem_ctrls2.wrQLenPdf::7                      1                       # What write queue length does an incoming req see
system.mem_ctrls2.wrQLenPdf::8                      1                       # What write queue length does an incoming req see
system.mem_ctrls2.wrQLenPdf::9                      1                       # What write queue length does an incoming req see
system.mem_ctrls2.wrQLenPdf::10                     1                       # What write queue length does an incoming req see
system.mem_ctrls2.wrQLenPdf::11                     1                       # What write queue length does an incoming req see
system.mem_ctrls2.wrQLenPdf::12                     1                       # What write queue length does an incoming req see
system.mem_ctrls2.wrQLenPdf::13                     1                       # What write queue length does an incoming req see
system.mem_ctrls2.wrQLenPdf::14                     1                       # What write queue length does an incoming req see
system.mem_ctrls2.wrQLenPdf::15                   288                       # What write queue length does an incoming req see
system.mem_ctrls2.wrQLenPdf::16                   357                       # What write queue length does an incoming req see
system.mem_ctrls2.wrQLenPdf::17                   787                       # What write queue length does an incoming req see
system.mem_ctrls2.wrQLenPdf::18                  1180                       # What write queue length does an incoming req see
system.mem_ctrls2.wrQLenPdf::19                  1251                       # What write queue length does an incoming req see
system.mem_ctrls2.wrQLenPdf::20                  1254                       # What write queue length does an incoming req see
system.mem_ctrls2.wrQLenPdf::21                  1250                       # What write queue length does an incoming req see
system.mem_ctrls2.wrQLenPdf::22                  1246                       # What write queue length does an incoming req see
[...]
system.ruby.L2Cache_Controller.M.L1_GET_INSTR |          14     25.00%     25.00% |           0      0.00%     25.00% |           0      0.00%     25.00% |           0      0.00%     25.00% |           0      0.00%     25.00% |           0      0.00%     25.00% |           0      0.00%     25.00% |           0      0.00%     25.00% |          14     25.00%     50.00% |          14     25.00%     75.00% |           0      0.00%     75.00% |           0      0.00%     75.00% |           0      0.00%     75.00% |           0      0.00%     75.00% |          14     25.00%    100.00% |           0      0.00%    100.00%
system.ruby.L2Cache_Controller.M.L1_GET_INSTR::total           56                      
system.ruby.L2Cache_Controller.M.L1_GETS |       10069      6.19%      6.19% |       10143      6.24%     12.43% |       10028      6.17%     18.59% |       10287      6.32%     24.92% |        9984      6.14%     31.06% |        9789      6.02%     37.07% |        9848      6.05%     43.13% |       10098      6.21%     49.34% |       10134      6.23%     55.57% |        9922      6.10%     61.67% |       10121      6.22%     67.89% |       10884      6.69%     74.58% |       10536      6.48%     81.06% |       10638      6.54%     87.60% |       10524      6.47%     94.07% |        9640      5.93%    100.00%
system.ruby.L2Cache_Controller.M.L1_GETS::total       162645                      
system.ruby.L2Cache_Controller.M.L1_GETX |        1266      6.29%      6.29% |        1352      6.72%     13.02% |        1315      6.54%     19.55% |        1236      6.15%     25.70% |        1277      6.35%     32.05% |        1214      6.04%     38.08% |        1147      5.70%     43.79% |        1346      6.69%     50.48% |        1237      6.15%     56.63% |        1295      6.44%     63.07% |        1268      6.30%     69.37% |        1214      6.04%     75.41% |        1231      6.12%     81.53% |        1149      5.71%     87.24% |        1260      6.26%     93.51% |        1306      6.49%    100.00%
system.ruby.L2Cache_Controller.M.L1_GETX::total        20113                      
system.ruby.L2Cache_Controller.M.L2_Replacement |        5050      6.36%      6.36% |        4974      6.26%     12.62% |        4958      6.24%     18.86% |        4947      6.23%     25.09% |        4895      6.16%     31.25% |        4958      6.24%     37.50% |        4949      6.23%     43.73% |        4920      6.19%     49.92% |        5009      6.31%     56.23% |        4890      6.16%     62.38% |        4934      6.21%     68.60% |        4941      6.22%     74.82% |        4957      6.24%     81.06% |        5047      6.35%     87.41% |        5054      6.36%     93.78% |        4944      6.22%    100.00%
system.ruby.L2Cache_Controller.M.L2_Replacement::total        79427                      
system.ruby.L2Cache_Controller.M.L2_Replacement_clean |        3074      6.29%      6.29% |        2961      6.06%     12.35% |        2892      5.92%     18.27% |        3058      6.26%     24.53% |        2951      6.04%     30.57% |        3011      6.16%     36.73% |        3065      6.27%     43.01% |        3105      6.36%     49.36% |        3131      6.41%     55.77% |        2978      6.10%     61.87% |        3081      6.31%     68.17% |        3076      6.30%     74.47% |        3149      6.45%     80.92% |        3093      6.33%     87.25% |        3108      6.36%     93.61% |        3123      6.39%    100.00%
system.ruby.L2Cache_Controller.M.L2_Replacement_clean::total        48856                      
system.ruby.L2Cache_Controller.MT.L1_GETS |          70      3.97%      3.97% |          70      3.97%      7.95% |          98      5.56%     13.51% |          98      5.56%     19.07% |          98      5.56%     24.63% |         140      7.95%     32.58% |         140      7.95%     40.52% |         140      7.95%     48.47% |         138      7.83%     56.30% |         138      7.83%     64.13% |         136      7.72%     71.85% |         132      7.49%     79.34% |         112      6.36%     85.70% |         112      6.36%     92.05% |          70      3.97%     96.03% |          70      3.97%    100.00%
system.ruby.L2Cache_Controller.MT.L1_GETS::total         1762                      
system.ruby.L2Cache_Controller.MT.L1_GETX |           0      0.00%      0.00% |           0      0.00%      0.00% |           0      0.00%      0.00% |           0      0.00%      0.00% |           0      0.00%      0.00% |           0      0.00%      0.00% |           0      0.00%      0.00% |           0      0.00%      0.00% |           1     12.50%     12.50% |           1     12.50%     25.00% |           2     25.00%     50.00% |           4     50.00%    100.00% |           0      0.00%    100.00% |           0      0.00%    100.00% |           0      0.00%    100.00% |           0      0.00%    100.00%
system.ruby.L2Cache_Controller.MT.L1_GETX::total            8                      
system.ruby.L2Cache_Controller.MT.L1_PUTX |       49590      6.25%      6.25% |       49603      6.25%     12.49% |       49245      6.20%     18.69% |       49735      6.26%     24.96% |       49236      6.20%     31.16% |       49143      6.19%     37.35% |       49265      6.20%     43.55% |       49668      6.26%     49.81% |       49734      6.26%     56.07% |       49281      6.21%     62.28% |       49594      6.25%     68.52% |       50339      6.34%     74.86% |       50167      6.32%     81.18% |       50174      6.32%     87.50% |       50052      6.30%     93.81% |       49189      6.19%    100.00%
system.ruby.L2Cache_Controller.MT.L1_PUTX::total       794015                      
system.ruby.L2Cache_Controller.MT.L2_Replacement |           6      5.13%      5.13% |           8      6.84%     11.97% |          13     11.11%     23.08% |          12     10.26%     33.33% |           8      6.84%     40.17% |          11      9.40%     49.57% |           7      5.98%     55.56% |           8      6.84%     62.39% |          11      9.40%     71.79% |           4      3.42%     75.21% |           8      6.84%     82.05% |           7      5.98%     88.03% |           5      4.27%     92.31% |           2      1.71%     94.02% |           4      3.42%     97.44% |           3      2.56%    100.00%
system.ruby.L2Cache_Controller.MT.L2_Replacement::total          117                      
system.ruby.L2Cache_Controller.MT.L2_Replacement_clean |          24      5.65%      5.65% |          23      5.41%     11.06% |          20      4.71%     15.76% |          30      7.06%     22.82% |          22      5.18%     28.00% |          26      6.12%     34.12% |          29      6.82%     40.94% |          25      5.88%     46.82% |          31      7.29%     54.12% |          30      7.06%     61.18% |          26      6.12%     67.29% |          22      5.18%     72.47% |          32      7.53%     80.00% |          35      8.24%     88.24% |          25      5.88%     94.12% |          25      5.88%    100.00%
system.ruby.L2Cache_Controller.MT.L2_Replacement_clean::total          425                      
system.ruby.L2Cache_Controller.M_I.L1_GET_INSTR |           0      0.00%      0.00% |           0      0.00%      0.00% |           0      0.00%      0.00% |           0      0.00%      0.00% |           0      0.00%      0.00% |           0      0.00%      0.00% |           1    100.00%    100.00% |           0      0.00%    100.00% |           0      0.00%    100.00% |           0      0.00%    100.00% |           0      0.00%    100.00% |           0      0.00%    100.00% |           0      0.00%    100.00% |           0      0.00%    100.00% |           0      0.00%    100.00% |           0      0.00%    100.00%
system.ruby.L2Cache_Controller.M_I.L1_GET_INSTR::total            1                      
system.ruby.L2Cache_Controller.M_I.Mem_Ack |        8750      6.30%      6.30% |        8649      6.23%     12.53% |        8576      6.18%     18.70% |        8632      6.22%     24.92% |        8526      6.14%     31.06% |        8671      6.24%     37.30% |        8688      6.26%     43.56% |        8685      6.25%     49.81% |        8853      6.37%     56.19% |        8416      6.06%     62.25% |        8624      6.21%     68.46% |        8655      6.23%     74.69% |        8752      6.30%     80.99% |        8809      6.34%     87.33% |        8887      6.40%     93.73% |        8706      6.27%    100.00%
system.ruby.L2Cache_Controller.M_I.Mem_Ack::total       138879                      
system.ruby.L2Cache_Controller.MT_I.WB_Data |           2      3.45%      3.45% |           7     12.07%     15.52% |           7     12.07%     27.59% |           5      8.62%     36.21% |           4      6.90%     43.10% |           6     10.34%     53.45% |           3      5.17%     58.62% |           3      5.17%     63.79% |           4      6.90%     70.69% |           2      3.45%     74.14% |           2      3.45%     77.59% |           4      6.90%     84.48% |           4      6.90%     91.38% |           1      1.72%     93.10% |           2      3.45%     96.55% |           2      3.45%    100.00%
system.ruby.L2Cache_Controller.MT_I.WB_Data::total           58                      
system.ruby.L2Cache_Controller.MT_I.Ack_all |           4      6.78%      6.78% |           1      1.69%      8.47% |           6     10.17%     18.64% |           7     11.86%     30.51% |           4      6.78%     37.29% |           5      8.47%     45.76% |           4      6.78%     52.54% |           5      8.47%     61.02% |           7     11.86%     72.88% |           2      3.39%     76.27% |           6     10.17%     86.44% |           3      5.08%     91.53% |           1      1.69%     93.22% |           1      1.69%     94.92% |           2      3.39%     98.31% |           1      1.69%    100.00%
system.ruby.L2Cache_Controller.MT_I.Ack_all::total           59                      
system.ruby.L2Cache_Controller.MCT_I.WB_Data |          22      5.70%      5.70% |          20      5.18%     10.88% |          20      5.18%     16.06% |          24      6.22%     22.28% |          20      5.18%     27.46% |          24      6.22%     33.68% |          28      7.25%     40.93% |          22      5.70%     46.63% |          29      7.51%     54.15% |          27      6.99%     61.14% |          25      6.48%     67.62% |          20      5.18%     72.80% |          29      7.51%     80.31% |          31      8.03%     88.34% |          22      5.70%     94.04% |          23      5.96%    100.00%
system.ruby.L2Cache_Controller.MCT_I.WB_Data::total          386                      
system.ruby.L2Cache_Controller.MCT_I.Ack_all |           2      5.13%      5.13% |           3      7.69%     12.82% |           0      0.00%     12.82% |           6     15.38%     28.21% |           2      5.13%     33.33% |           2      5.13%     38.46% |           1      2.56%     41.03% |           3      7.69%     48.72% |           2      5.13%     53.85% |           3      7.69%     61.54% |           1      2.56%     64.10% |           2      5.13%     69.23% |           3      7.69%     76.92% |           4     10.26%     87.18% |           3      7.69%     94.87% |           2      5.13%    100.00%
system.ruby.L2Cache_Controller.MCT_I.Ack_all::total           39                      
system.ruby.L2Cache_Controller.I_I.Ack_all |         594      5.93%      5.93% |         681      6.80%     12.73% |         691      6.90%     19.62% |         582      5.81%     25.43% |         647      6.46%     31.89% |         662      6.61%     38.50% |         636      6.35%     44.85% |         625      6.24%     51.09% |         671      6.70%     57.79% |         511      5.10%     62.89% |         572      5.71%     68.60% |         607      6.06%     74.66% |         605      6.04%     80.69% |         629      6.28%     86.97% |         695      6.94%     93.91% |         610      6.09%    100.00%
system.ruby.L2Cache_Controller.I_I.Ack_all::total        10018                      
system.ruby.L2Cache_Controller.S_I.Ack   |           2      5.56%      5.56% |           2      5.56%     11.11% |           2      5.56%     16.67% |           3      8.33%     25.00% |           3      8.33%     33.33% |           3      8.33%     41.67% |           2      5.56%     47.22% |           2      5.56%     52.78% |           0      0.00%     52.78% |           3      8.33%     61.11% |           3      8.33%     69.44% |           2      5.56%     75.00% |           4     11.11%     86.11% |           3      8.33%     94.44% |           1      2.78%     97.22% |           1      2.78%    100.00%
system.ruby.L2Cache_Controller.S_I.Ack::total           36                      
system.ruby.L2Cache_Controller.S_I.Ack_all |           2      5.56%      5.56% |           2      5.56%     11.11% |           2      5.56%     16.67% |           3      8.33%     25.00% |           3      8.33%     33.33% |           3      8.33%     41.67% |           2      5.56%     47.22% |           2      5.56%     52.78% |           0      0.00%     52.78% |           3      8.33%     61.11% |           3      8.33%     69.44% |           2      5.56%     75.00% |           4     11.11%     86.11% |           3      8.33%     94.44% |           1      2.78%     97.22% |           1      2.78%    100.00%
system.ruby.L2Cache_Controller.S_I.Ack_all::total           36                      
system.ruby.L2Cache_Controller.ISS.Mem_Data |       29151      6.27%      6.27% |       28920      6.22%     12.48% |       28683      6.17%     18.65% |       29046      6.24%     24.89% |       28806      6.19%     31.09% |       29004      6.24%     37.32% |       29117      6.26%     43.58% |       29086      6.25%     49.83% |       29258      6.29%     56.12% |       29002      6.23%     62.36% |       29101      6.26%     68.61% |       29162      6.27%     74.88% |       29320      6.30%     81.19% |       29275      6.29%     87.48% |       29133      6.26%     93.74% |       29112      6.26%    100.00%
system.ruby.L2Cache_Controller.ISS.Mem_Data::total       465176                      
system.ruby.L2Cache_Controller.IS.Mem_Data |        1355      6.38%      6.38% |        1365      6.43%     12.82% |        1498      7.06%     19.88% |        1288      6.07%     25.94% |        1348      6.35%     32.30% |        1330      6.27%     38.56% |        1280      6.03%     44.60% |        1294      6.10%     50.69% |        1368      6.45%     57.14% |        1169      5.51%     62.65% |        1256      5.92%     68.57% |        1271      5.99%     74.55% |        1232      5.81%     80.36% |        1304      6.14%     86.50% |        1518      7.15%     93.66% |        1346      6.34%    100.00%
system.ruby.L2Cache_Controller.IS.Mem_Data::total        21222                      
system.ruby.L2Cache_Controller.IM.Mem_Data |       10028      6.23%      6.23% |       10112      6.28%     12.50% |       10141      6.30%     18.80% |       10104      6.27%     25.07% |       10106      6.27%     31.34% |       10088      6.26%     37.61% |       10105      6.27%     43.88% |       10087      6.26%     50.14% |       10045      6.24%     56.38% |       10011      6.21%     62.59% |       10056      6.24%     68.83% |       10031      6.23%     75.06% |       10018      6.22%     81.28% |       10049      6.24%     87.52% |       10059      6.24%     93.76% |       10052      6.24%    100.00%
system.ruby.L2Cache_Controller.IM.Mem_Data::total       161092                      
system.ruby.L2Cache_Controller.SS_MB.Exclusive_Unblock |          42      3.93%      3.93% |          42      3.93%      7.85% |          70      6.54%     14.39% |          56      5.23%     19.63% |          56      5.23%     24.86% |          84      7.85%     32.71% |          84      7.85%     40.56% |          84      7.85%     48.41% |          83      7.76%     56.17% |          83      7.76%     63.93% |          82      7.66%     71.59% |          80      7.48%     79.07% |          70      6.54%     85.61% |          70      6.54%     92.15% |          42      3.93%     96.07% |          42      3.93%    100.00%
system.ruby.L2Cache_Controller.SS_MB.Exclusive_Unblock::total         1070                      
system.ruby.L2Cache_Controller.MT_MB.Exclusive_Unblock |       50514      6.24%      6.24% |       50527      6.25%     12.49% |       50167      6.20%     18.69% |       50673      6.26%     24.95% |       50173      6.20%     31.15% |       50095      6.19%     37.35% |       50217      6.21%     43.55% |       50617      6.26%     49.81% |       50675      6.26%     56.07% |       50231      6.21%     62.28% |       50548      6.25%     68.53% |       51295      6.34%     74.87% |       51105      6.32%     81.19% |       51111      6.32%     87.51% |       50976      6.30%     93.81% |       50110      6.19%    100.00%
system.ruby.L2Cache_Controller.MT_MB.Exclusive_Unblock::total       809034                      
system.ruby.L2Cache_Controller.MT_IIB.WB_Data |          68      3.92%      3.92% |          70      4.03%      7.95% |          96      5.53%     13.48% |          94      5.41%     18.89% |          95      5.47%     24.37% |         139      8.01%     32.37% |         138      7.95%     40.32% |         139      8.01%     48.33% |         137      7.89%     56.22% |         134      7.72%     63.94% |         133      7.66%     71.60% |         132      7.60%     79.21% |         111      6.39%     85.60% |         111      6.39%     91.99% |          69      3.97%     95.97% |          70      4.03%    100.00%
system.ruby.L2Cache_Controller.MT_IIB.WB_Data::total         1736                      
system.ruby.L2Cache_Controller.MT_IIB.Unblock |           2      7.69%      7.69% |           0      0.00%      7.69% |           2      7.69%     15.38% |           4     15.38%     30.77% |           3     11.54%     42.31% |           1      3.85%     46.15% |           2      7.69%     53.85% |           1      3.85%     57.69% |           1      3.85%     61.54% |           4     15.38%     76.92% |           3     11.54%     88.46% |           0      0.00%     88.46% |           1      3.85%     92.31% |           1      3.85%     96.15% |           1      3.85%    100.00% |           0      0.00%    100.00%
system.ruby.L2Cache_Controller.MT_IIB.Unblock::total           26                      
system.ruby.L2Cache_Controller.MT_IB.WB_Data |           2      7.69%      7.69% |           0      0.00%      7.69% |           2      7.69%     15.38% |           4     15.38%     30.77% |           3     11.54%     42.31% |           1      3.85%     46.15% |           2      7.69%     53.85% |           1      3.85%     57.69% |           1      3.85%     61.54% |           4     15.38%     76.92% |           3     11.54%     88.46% |           0      0.00%     88.46% |           1      3.85%     92.31% |           1      3.85%     96.15% |           1      3.85%    100.00% |           0      0.00%    100.00%
system.ruby.L2Cache_Controller.MT_IB.WB_Data::total           26                      
system.ruby.L2Cache_Controller.MT_SB.Unblock |          68      3.92%      3.92% |          70      4.03%      7.95% |          96      5.53%     13.48% |          94      5.41%     18.89% |          95      5.47%     24.37% |         139      8.01%     32.37% |         138      7.95%     40.32% |         139      8.01%     48.33% |         137      7.89%     56.22% |         134      7.72%     63.94% |         133      7.66%     71.60% |         132      7.60%     79.21% |         111      6.39%     85.60% |         111      6.39%     91.99% |          69      3.97%     95.97% |          70      4.03%    100.00%
system.ruby.L2Cache_Controller.MT_SB.Unblock::total         1736                      

---------- End Simulation Statistics   ----------
