
---------- Begin Simulation Statistics ----------
sim_seconds                                  0.015957                       # Number of seconds simulated
sim_ticks                                 15957259000                       # Number of ticks simulated
final_tick                                15957259000                       # Number of ticks from beginning of simulation (restored from checkpoints and never reset)
sim_freq                                 1000000000000                       # Frequency of simulated ticks
host_inst_rate                                  55697                       # Simulator instruction rate (inst/s)
host_op_rate                                    96604                       # Simulator op (including micro ops) rate (op/s)
host_tick_rate                               19211529                       # Simulator tick rate (ticks/s)
host_mem_usage                                2043212                       # Number of bytes of host memory used
host_seconds                                   830.61                       # Real time elapsed on the host
sim_insts                                    46262077                       # Number of instructions simulated
sim_ops                                      80240037                       # Number of ops (including micro ops) simulated
system.voltage_domain.voltage                       1                       # Voltage in Volts
system.clk_domain.clock                          1000                       # Clock period in ticks
system.mem_ctrls0.pwrStateResidencyTicks::UNDEFINED  15957259000                       # Cumulative time (in ticks) in various power states
system.mem_ctrls0.bytes_read::ruby.dir_cntrl0     10359936                       # Number of bytes read from this memory
system.mem_ctrls0.bytes_read::total          10359936                       # Number of bytes read from this memory
system.mem_ctrls0.bytes_written::ruby.dir_cntrl0      1243328                       # Number of bytes written to this memory
system.mem_ctrls0.bytes_written::total        1243328                       # Number of bytes written to this memory
system.mem_ctrls0.num_reads::ruby.dir_cntrl0       161874                       # Number of read requests responded to by this memory
system.mem_ctrls0.num_reads::total             161874                       # Number of read requests responded to by this memory
system.mem_ctrls0.num_writes::ruby.dir_cntrl0        19427                       # Number of write requests responded to by this memory
system.mem_ctrls0.num_writes::total             19427                       # Number of write requests responded to by this memory
system.mem_ctrls0.bw_read::ruby.dir_cntrl0    649230297                       # Total read bandwidth from this memory (bytes/s)
system.mem_ctrls0.bw_read::total            649230297                       # Total read bandwidth from this memory (bytes/s)
system.mem_ctrls0.bw_write::ruby.dir_cntrl0     77916138                       # Write bandwidth from this memory (bytes/s)
system.mem_ctrls0.bw_write::total            77916138                       # Write bandwidth from this memory (bytes/s)
system.mem_ctrls0.bw_total::ruby.dir_cntrl0    727146435                       # Total bandwidth to/from this memory (bytes/s)
system.mem_ctrls0.bw_total::total           727146435                       # Total bandwidth to/from this memory (bytes/s)
system.mem_ctrls0.readReqs                     161874                       # Number of read requests accepted
system.mem_ctrls0.avgNetLat                      0.00                       # Average network latency to DRAM controller
system.mem_ctrls0.writeReqs                     19427                       # Number of write requests accepted
system.mem_ctrls0.readBursts                   161874                       # Number of DRAM read bursts, including those serviced by the write queue
system.mem_ctrls0.writeBursts                   19427                       # Number of DRAM write bursts, including those merged in the write queue
system.mem_ctrls0.bytesReadDRAM              10359552                       # Total number of bytes read from DRAM
system.mem_ctrls0.bytesReadWrQ                    384                       # Total number of bytes read from write queue
system.mem_ctrls0.bytesWritten                1241600                       # Total number of bytes written to DRAM
system.mem_ctrls0.bytesReadSys               10359936                       # Total read bytes from the system interface side
system.mem_ctrls0.bytesWrittenSys             1243328                       # Total written bytes from the system interface side
system.mem_ctrls0.servicedByWrQ                     6                       # Number of DRAM read bursts serviced by the write queue
system.mem_ctrls0.mergedWrBursts                    0                       # Number of DRAM write bursts merged with an existing one
system.mem_ctrls0.neitherReadNorWriteReqs            0                       # Number of requests that are neither read nor write
system.mem_ctrls0.perBankRdBursts::0            10460                       # Per bank write bursts
system.mem_ctrls0.perBankRdBursts::1            10074                       # Per bank write bursts
system.mem_ctrls0.perBankRdBursts::2            10118                       # Per bank write bursts
system.mem_ctrls0.perBankRdBursts::3            10091                       # Per bank write bursts
system.mem_ctrls0.perBankRdBursts::4             9643                       # Per bank write bursts
system.mem_ctrls0.perBankRdBursts::5             9357                       # Per bank write bursts
system.mem_ctrls0.perBankRdBursts::6             9839                       # Per bank write bursts
system.mem_ctrls0.perBankRdBursts::7             9677                       # Per bank write bursts
system.mem_ctrls0.perBankRdBursts::8             9714                       # Per bank write bursts
system.mem_ctrls0.perBankRdBursts::9            10015                       # Per bank write bursts
system.mem_ctrls0.perBankRdBursts::10           10495                       # Per bank write bursts
system.mem_ctrls0.perBankRdBursts::11           10555                       # Per bank write bursts
system.mem_ctrls0.perBankRdBursts::12           10938                       # Per bank write bursts
system.mem_ctrls0.perBankRdBursts::13           10859                       # Per bank write bursts
system.mem_ctrls0.perBankRdBursts::14            9919                       # Per bank write bursts
system.mem_ctrls0.perBankRdBursts::15           10114                       # Per bank write bursts
system.mem_ctrls0.perBankWrBursts::0             1318                       # Per bank write bursts
system.mem_ctrls0.perBankWrBursts::1             1141                       # Per bank write bursts
system.mem_ctrls0.perBankWrBursts::2             1189                       # Per bank write bursts
system.mem_ctrls0.perBankWrBursts::3             1243                       # Per bank write bursts
system.mem_ctrls0.perBankWrBursts::4             1068                       # Per bank write bursts
system.mem_ctrls0.perBankWrBursts::5              912                       # Per bank write bursts
system.mem_ctrls0.perBankWrBursts::6             1061                       # Per bank write bursts
system.mem_ctrls0.perBankWrBursts::7             1024                       # Per bank write bursts
system.mem_ctrls0.perBankWrBursts::8             1069                       # Per bank write bursts
system.mem_ctrls0.perBankWrBursts::9             1134                       # Per bank write bursts
system.mem_ctrls0.perBankWrBursts::10            1374                       # Per bank write bursts
system.mem_ctrls0.perBankWrBursts::11            1396                       # Per bank write bursts
system.mem_ctrls0.perBankWrBursts::12            1542                       # Per bank write bursts
system.mem_ctrls0.perBankWrBursts::13            1490                       # Per bank write bursts
system.mem_ctrls0.perBankWrBursts::14            1176                       # Per bank write bursts
system.mem_ctrls0.perBankWrBursts::15            1263                       # Per bank write bursts
system.mem_ctrls0.numRdRetry                        0                       # Number of times read queue was full causing retry
system.mem_ctrls0.numWrRetry                        0                       # Number of times write queue was full causing retry
system.mem_ctrls0.totGap                  15956147500                       # Total gap between requests
system.mem_ctrls0.readPktSize::0                    0                       # Read request sizes (log2)
system.mem_ctrls0.readPktSize::1                    0                       # Read request sizes (log2)
system.mem_ctrls0.readPktSize::2                    0                       # Read request sizes (log2)
system.mem_ctrls0.readPktSize::3                    0                       # Read request sizes (log2)
system.mem_ctrls0.readPktSize::4                    0                       # Read request sizes (log2)
system.mem_ctrls0.readPktSize::5                    0                       # Read request sizes (log2)
system.mem_ctrls0.readPktSize::6               161874                       # Read request sizes (log2)
system.mem_ctrls0.writePktSize::0                   0                       # Write request sizes (log2)
system.mem_ctrls0.writePktSize::1                   0                       # Write request sizes (log2)
system.mem_ctrls0.writePktSize::2                   0                       # Write request sizes (log2)
system.mem_ctrls0.writePktSize::3                   0                       # Write request sizes (log2)
system.mem_ctrls0.writePktSize::4                   0                       # Write request sizes (log2)
system.mem_ctrls0.writePktSize::5                   0                       # Write request sizes (log2)
system.mem_ctrls0.writePktSize::6               19427                       # Write request sizes (log2)
system.mem_ctrls0.rdQLenPdf::0                  80050                       # What read queue length does an incoming req see
system.mem_ctrls0.rdQLenPdf::1                  42291                       # What read queue length does an incoming req see
system.mem_ctrls0.rdQLenPdf::2                  21170                       # What read queue length does an incoming req see
system.mem_ctrls0.rdQLenPdf::3                  10425                       # What read queue length does an incoming req see
system.mem_ctrls0.rdQLenPdf::4                   4694                       # What read queue length does an incoming req see
system.mem_ctrls0.rdQLenPdf::5                   2009                       # What read queue length does an incoming req see
system.mem_ctrls0.rdQLenPdf::6                    815                       # What read queue length does an incoming req see
system.mem_ctrls0.rdQLenPdf::7                    283                       # What read queue length does an incoming req see
system.mem_ctrls0.rdQLenPdf::8                    104                       # What read queue length does an incoming req see
system.mem_ctrls0.rdQLenPdf::9                     23                       # What read queue length does an incoming req see
system.mem_ctrls0.rdQLenPdf::10                     3                       # What read queue length does an incoming req see
system.mem_ctrls0.rdQLenPdf::11                     1                       # What read queue length does an incoming req see
system.mem_ctrls0.rdQLenPdf::12                     0                       # What read queue length does an incoming req see
system.mem_ctrls0.rdQLenPdf::13                     0                       # What read queue length does an incoming req see
system.mem_ctrls0.rdQLenPdf::14                     0                       # What read queue length does an incoming req see
system.mem_ctrls0.rdQLenPdf::15                     0                       # What read queue length does an incoming req see
system.mem_ctrls0.rdQLenPdf::16                     0                       # What read queue length does an incoming req see
system.mem_ctrls0.rdQLenPdf::17                     0                       # What read queue length does an incoming req see
system.mem_ctrls0.rdQLenPdf::18                     0                       # What read queue length does an incoming req see
system.mem_ctrls0.rdQLenPdf::19                     0                       # What read queue length does an incoming req see
system.mem_ctrls0.rdQLenPdf::20                     0                       # What read queue length does an incoming req see
system.mem_ctrls0.rdQLenPdf::21                     0                       # What read queue length does an incoming req see
system.mem_ctrls0.rdQLenPdf::22                     0                       # What read queue length does an incoming req see
system.mem_ctrls0.rdQLenPdf::23                     0                       # What read queue length does an incoming req see
system.mem_ctrls0.rdQLenPdf::24                     0                       # What read queue length does an incoming req see
system.mem_ctrls0.rdQLenPdf::25                     0                       # What read queue length does an incoming req see
system.mem_ctrls0.rdQLenPdf::26                     0                       # What read queue length does an incoming req see
system.mem_ctrls0.rdQLenPdf::27                     0                       # What read queue length does an incoming req see
system.mem_ctrls0.rdQLenPdf::28                     0                       # What read queue length does an incoming req see
system.mem_ctrls0.rdQLenPdf::29                     0                       # What read queue length does an incoming req see
system.mem_ctrls0.rdQLenPdf::30                     0                       # What read queue length does an incoming req see
system.mem_ctrls0.rdQLenPdf::31                     0                       # What read queue length does an incoming req see
system.mem_ctrls0.wrQLenPdf::0                      1                       # What write queue length does an incoming req see
system.mem_ctrls0.wrQLenPdf::1                      1                       # What write queue length does an incoming req see
system.mem_ctrls0.wrQLenPdf::2                      1                       # What write queue length does an incoming req see
system.mem_ctrls0.wrQLenPdf::3                      1                       # What write queue length does an incoming req see
system.mem_ctrls0.wrQLenPdf::4                      1                       # What write queue length does an incoming req see
system.mem_ctrls0.wrQLenPdf::5                      1                       # What write queue length does an incoming req see
system.mem_ctrls0.wrQLenPdf::6                      1                       # What write queue length does an incoming req see
system.mem_ctrls0.wrQLenPdf::7                      1                       # What write queue length does an incoming req see
system.mem_ctrls0.wrQLenPdf::8                      1                       # What write queue length does an incoming req see
system.mem_ctrls0.wrQLenPdf::9                      1                       # What write queue length does an incoming req see
system.mem_ctrls0.wrQLenPdf::10                     1                       # What write queue length does an incoming req see
system.mem_ctrls0.wrQLenPdf::11                     1                       # What write queue length does an incoming req see
system.mem_ctrls0.wrQLenPdf::12                     1                       # What write queue length does an incoming req see
system.mem_ctrls0.wrQLenPdf::13                     1                       # What write queue length does an incoming req see
system.mem_ctrls0.wrQLenPdf::14                     1                       # What write queue length does an incoming req see
system.mem_ctrls0.wrQLenPdf::15                   289                       # What write queue length does an incoming req see
system.mem_ctrls0.wrQLenPdf::16                   351                       # What write queue length does an incoming req see
system.mem_ctrls0.wrQLenPdf::17                   758                       # What write queue length does an incoming req see
system.mem_ctrls0.wrQLenPdf::18                  1108                       # What write queue length does an incoming req see
system.mem_ctrls0.wrQLenPdf::19                  1209                       # What write queue length does an incoming req see
system.mem_ctrls0.wrQLenPdf::20                  1221                       # What write queue length does an incoming req see
system.mem_ctrls0.wrQLenPdf::21                  1209                       # What write queue length does an incoming req see
system.mem_ctrls0.wrQLenPdf::22                  1208                       # What write queue length does an incoming req see
system.mem_ctrls0.wrQLenPdf::23                  1214                       # What write queue length does an incoming req see
system.mem_ctrls0.wrQLenPdf::24                  1200                       # What write queue length does an incoming req see
system.mem_ctrls0.wrQLenPdf::25                  1203                       # What write queue length does an incoming req see
system.mem_ctrls0.wrQLenPdf::26                  1204                       # What write queue length does an incoming req see
system.mem_ctrls0.wrQLenPdf::27                  1204                       # What write queue length does an incoming req see
system.mem_ctrls0.wrQLenPdf::28                  1208                       # What write queue length does an incoming req see
system.mem_ctrls0.wrQLenPdf::29                  1194                       # What write queue length does an incoming req see
system.mem_ctrls0.wrQLenPdf::30                  1201                       # What write queue length does an incoming req see
system.mem_ctrls0.wrQLenPdf::31                  1192                       # What write queue length does an incoming req see
system.mem_ctrls0.wrQLenPdf::32                  1197                       # What write queue length does an incoming req see
system.mem_ctrls0.wrQLenPdf::33                    35                       # What write queue length does an incoming req see
system.mem_ctrls0.wrQLenPdf::34                     6                       # What write queue length does an incoming req see
system.mem_ctrls0.wrQLenPdf::35                     1                       # What write queue length does an incoming req see
system.mem_ctrls0.wrQLenPdf::36                     0                       # What write queue length does an incoming req see
system.mem_ctrls0.wrQLenPdf::37                     0                       # What write queue length does an incoming req see
system.mem_ctrls0.wrQLenPdf::38                     0                       # What write queue length does an incoming req see
system.mem_ctrls0.wrQLenPdf::39                     0                       # What write queue length does an incoming req see
system.mem_ctrls0.wrQLenPdf::40                     0                       # What write queue length does an incoming req see
system.mem_ctrls0.wrQLenPdf::41                     0                       # What write queue length does an incoming req see
system.mem_ctrls0.wrQLenPdf::42                     0                       # What write queue length does an incoming req see
system.mem_ctrls0.wrQLenPdf::43                     0                       # What write queue length does an incoming req see
system.mem_ctrls0.wrQLenPdf::44                     0                       # What write queue length does an incoming req see
system.mem_ctrls0.wrQLenPdf::45                     0                       # What write queue length does an incoming req see
system.mem_ctrls0.wrQLenPdf::46                     0                       # What write queue length does an incoming req see
system.mem_ctrls0.wrQLenPdf::47                     0                       # What write queue length does an incoming req see
system.mem_ctrls0.wrQLenPdf::48                     0                       # What write queue length does an incoming req see
system.mem_ctrls0.wrQLenPdf::49                     0                       # What write queue length does an incoming req see
system.mem_ctrls0.wrQLenPdf::50                     0                       # What write queue length does an incoming req see
system.mem_ctrls0.wrQLenPdf::51                     0                       # What write queue length does an incoming req see
system.mem_ctrls0.wrQLenPdf::52                     0                       # What write queue length does an incoming req see
system.mem_ctrls0.wrQLenPdf::53                     0                       # What write queue length does an incoming req see
system.mem_ctrls0.wrQLenPdf::54                     0                       # What write queue length does an incoming req see
system.mem_ctrls0.wrQLenPdf::55                     0                       # What write queue length does an incoming req see
system.mem_ctrls0.wrQLenPdf::56                     0                       # What write queue length does an incoming req see
system.mem_ctrls0.wrQLenPdf::57                     0                       # What write queue length does an incoming req see
system.mem_ctrls0.wrQLenPdf::58                     0                       # What write queue length does an incoming req see
system.mem_ctrls0.wrQLenPdf::59                     0                       # What write queue length does an incoming req see
system.mem_ctrls0.wrQLenPdf::60                     0                       # What write queue length does an incoming req see
system.mem_ctrls0.wrQLenPdf::61                     0                       # What write queue length does an incoming req see
system.mem_ctrls0.wrQLenPdf::62                     0                       # What write queue length does an incoming req see
system.mem_ctrls0.wrQLenPdf::63                     0                       # What write queue length does an incoming req see
system.mem_ctrls0.bytesPerActivate::samples       102419                       # Bytes accessed per row activation
system.mem_ctrls0.bytesPerActivate::mean   113.269608                       # Bytes accessed per row activation
system.mem_ctrls0.bytesPerActivate::gmean    87.978445                       # Bytes accessed per row activation
system.mem_ctrls0.bytesPerActivate::stdev   119.704371                       # Bytes accessed per row activation
system.mem_ctrls0.bytesPerActivate::0-127        73829     72.09%     72.09% # Bytes accessed per row activation
system.mem_ctrls0.bytesPerActivate::128-255        18169     17.74%     89.83% # Bytes accessed per row activation
system.mem_ctrls0.bytesPerActivate::256-383         4354      4.25%     94.08% # Bytes accessed per row activation
system.mem_ctrls0.bytesPerActivate::384-511         2720      2.66%     96.73% # Bytes accessed per row activation
system.mem_ctrls0.bytesPerActivate::512-639         1660      1.62%     98.35% # Bytes accessed per row activation
system.mem_ctrls0.bytesPerActivate::640-767         1245      1.22%     99.57% # Bytes accessed per row activation
system.mem_ctrls0.bytesPerActivate::768-895          214      0.21%     99.78% # Bytes accessed per row activation
system.mem_ctrls0.bytesPerActivate::896-1023          118      0.12%     99.89% # Bytes accessed per row activation
system.mem_ctrls0.bytesPerActivate::1024-1151          110      0.11%    100.00% # Bytes accessed per row activation
system.mem_ctrls0.bytesPerActivate::total       102419                       # Bytes accessed per row activation
system.mem_ctrls0.rdPerTurnAround::samples         1170                       # Reads before turning the bus around for writes
system.mem_ctrls0.rdPerTurnAround::mean    138.335043                       # Reads before turning the bus around for writes
system.mem_ctrls0.rdPerTurnAround::gmean    49.507763                       # Reads before turning the bus around for writes
system.mem_ctrls0.rdPerTurnAround::stdev  1906.357267                       # Reads before turning the bus around for writes
system.mem_ctrls0.rdPerTurnAround::0-2047         1169     99.91%     99.91% # Reads before turning the bus around for writes
system.mem_ctrls0.rdPerTurnAround::63488-65535            1      0.09%    100.00% # Reads before turning the bus around for writes
system.mem_ctrls0.rdPerTurnAround::total         1170                       # Reads before turning the bus around for writes
system.mem_ctrls0.wrPerTurnAround::samples         1170                       # Writes before turning the bus around for reads
system.mem_ctrls0.wrPerTurnAround::mean     16.581197                       # Writes before turning the bus around for reads
system.mem_ctrls0.wrPerTurnAround::gmean    16.557538                       # Writes before turning the bus around for reads
system.mem_ctrls0.wrPerTurnAround::stdev     0.901850                       # Writes before turning the bus around for reads
system.mem_ctrls0.wrPerTurnAround::16             810     69.23%     69.23% # Writes before turning the bus around for reads
system.mem_ctrls0.wrPerTurnAround::17              52      4.44%     73.68% # Writes before turning the bus around for reads
system.mem_ctrls0.wrPerTurnAround::18             297     25.38%     99.06% # Writes before turning the bus around for reads
system.mem_ctrls0.wrPerTurnAround::19              10      0.85%     99.91% # Writes before turning the bus around for reads
system.mem_ctrls0.wrPerTurnAround::20               1      0.09%    100.00% # Writes before turning the bus around for reads
system.mem_ctrls0.wrPerTurnAround::total         1170                       # Writes before turning the bus around for reads
system.mem_ctrls0.totQLat                  4645718750                       # Total ticks spent queuing
system.mem_ctrls0.totMemAccLat             7680743750                       # Total ticks spent from burst creation until serviced by the DRAM
system.mem_ctrls0.totBusLat                 809340000                       # Total ticks spent in databus transfers
system.mem_ctrls0.avgQLat                    28700.66                       # Average queueing delay per DRAM burst
system.mem_ctrls0.avgBusLat                   5000.00                       # Average bus latency per DRAM burst
system.mem_ctrls0.avgMemAccLat               47450.66                       # Average memory access latency per DRAM burst
system.mem_ctrls0.avgRdBW                      649.21                       # Average DRAM read bandwidth in MiByte/s
system.mem_ctrls0.avgWrBW                       77.81                       # Average achieved write bandwidth in MiByte/s
system.mem_ctrls0.avgRdBWSys                   649.23                       # Average system read bandwidth in MiByte/s
system.mem_ctrls0.avgWrBWSys                    77.92                       # Average system write bandwidth in MiByte/s
system.mem_ctrls0.peakBW                     12800.00                       # Theoretical peak bandwidth in MiByte/s
system.mem_ctrls0.busUtil                        5.68                       # Data bus utilization in percentage
system.mem_ctrls0.busUtilRead                    5.07                       # Data bus utilization in percentage for reads
system.mem_ctrls0.busUtilWrite                   0.61                       # Data bus utilization in percentage for writes
system.mem_ctrls0.avgRdQLen                      1.58                       # Average read queue length when enqueuing
system.mem_ctrls0.avgWrQLen                     12.88                       # Average write queue length when enqueuing
system.mem_ctrls0.readRowHits                   74673                       # Number of row buffer hits during reads
system.mem_ctrls0.writeRowHits                   4174                       # Number of row buffer hits during writes
system.mem_ctrls0.readRowHitRate                46.13                       # Row buffer hit rate for reads
system.mem_ctrls0.writeRowHitRate               21.49                       # Row buffer hit rate for writes
system.mem_ctrls0.avgGap                     88009.15                       # Average gap between requests
system.mem_ctrls0.pageHitRate                   43.49                       # Row buffer hit rate, read and write combined
system.mem_ctrls0_0.actEnergy               354136860                       # Energy for activate commands per rank (pJ)
system.mem_ctrls0_0.preEnergy               188228205                       # Energy for precharge commands per rank (pJ)
system.mem_ctrls0_0.readEnergy              565909260                       # Energy for read commands per rank (pJ)
system.mem_ctrls0_0.writeEnergy              46750320                       # Energy for write commands per rank (pJ)
system.mem_ctrls0_0.refreshEnergy        1240343520.000000                       # Energy for refresh commands per rank (pJ)
system.mem_ctrls0_0.actBackEnergy          1487555790                       # Energy for active background per rank (pJ)
system.mem_ctrls0_0.preBackEnergy            36848640                       # Energy for precharge background per rank (pJ)
system.mem_ctrls0_0.actPowerDownEnergy     5304830970                       # Energy for active power-down per rank (pJ)
system.mem_ctrls0_0.prePowerDownEnergy      240579840                       # Energy for precharge power-down per rank (pJ)
system.mem_ctrls0_0.selfRefreshEnergy        88705740                       # Energy for self refresh per rank (pJ)
system.mem_ctrls0_0.totalEnergy            9554247135                       # Total energy per rank (pJ)
system.mem_ctrls0_0.averagePower           598.739736                       # Core power per rank (mW)
system.mem_ctrls0_0.totalIdleTime         12597449000                       # Total Idle time Per DRAM Rank
system.mem_ctrls0_0.memoryStateTime::IDLE     14451750                       # Time in different power states
system.mem_ctrls0_0.memoryStateTime::REF    524776000                       # Time in different power states
system.mem_ctrls0_0.memoryStateTime::SREF    338411000                       # Time in different power states
system.mem_ctrls0_0.memoryStateTime::PRE_PDN    626518500                       # Time in different power states
system.mem_ctrls0_0.memoryStateTime::ACT   2820413250                       # Time in different power states
system.mem_ctrls0_0.memoryStateTime::ACT_PDN  11632688500                       # Time in different power states
system.mem_ctrls0_1.actEnergy               377149080                       # Energy for activate commands per rank (pJ)
system.mem_ctrls0_1.preEnergy               200451900                       # Energy for precharge commands per rank (pJ)
system.mem_ctrls0_1.readEnergy              589828260                       # Energy for read commands per rank (pJ)
system.mem_ctrls0_1.writeEnergy              54517680                       # Energy for write commands per rank (pJ)
system.mem_ctrls0_1.refreshEnergy        1240343520.000000                       # Energy for refresh commands per rank (pJ)
system.mem_ctrls0_1.actBackEnergy          1538552550                       # Energy for active background per rank (pJ)
system.mem_ctrls0_1.preBackEnergy            35287680                       # Energy for precharge background per rank (pJ)
system.mem_ctrls0_1.actPowerDownEnergy     5329990770                       # Energy for active power-down per rank (pJ)
system.mem_ctrls0_1.prePowerDownEnergy      194208000                       # Energy for precharge power-down per rank (pJ)
system.mem_ctrls0_1.selfRefreshEnergy        75702720                       # Energy for self refresh per rank (pJ)
system.mem_ctrls0_1.totalEnergy            9636032160                       # Total energy per rank (pJ)
system.mem_ctrls0_1.averagePower           603.865085                       # Core power per rank (mW)
system.mem_ctrls0_1.totalIdleTime         12490056250                       # Total Idle time Per DRAM Rank
system.mem_ctrls0_1.memoryStateTime::IDLE     13187250                       # Time in different power states
system.mem_ctrls0_1.memoryStateTime::REF    524740000                       # Time in different power states
system.mem_ctrls0_1.memoryStateTime::SREF    297020000                       # Time in different power states
system.mem_ctrls0_1.memoryStateTime::PRE_PDN    505656750                       # Time in different power states
system.mem_ctrls0_1.memoryStateTime::ACT   2927595250                       # Time in different power states
system.mem_ctrls0_1.memoryStateTime::ACT_PDN  11689059750                       # Time in different power states
system.mem_ctrls1.pwrStateResidencyTicks::UNDEFINED  15957259000                       # Cumulative time (in ticks) in various power states
system.mem_ctrls1.bytes_read::ruby.dir_cntrl1     10327872                       # Number of bytes read from this memory
system.mem_ctrls1.bytes_read::total          10327872                       # Number of bytes read from this memory
system.mem_ctrls1.bytes_written::ruby.dir_cntrl1      1233408                       # Number of bytes written to this memory
system.mem_ctrls1.bytes_written::total        1233408                       # Number of bytes written to this memory
system.mem_ctrls1.num_reads::ruby.dir_cntrl1       161373                       # Number of read requests responded to by this memory
system.mem_ctrls1.num_reads::total             161373                       # Number of read requests responded to by this memory
system.mem_ctrls1.num_writes::ruby.dir_cntrl1        19272                       # Number of write requests responded to by this memory
system.mem_ctrls1.num_writes::total             19272                       # Number of write requests responded to by this memory
system.mem_ctrls1.bw_read::ruby.dir_cntrl1    647220929                       # Total read bandwidth from this memory (bytes/s)
system.mem_ctrls1.bw_read::total            647220929                       # Total read bandwidth from this memory (bytes/s)
system.mem_ctrls1.bw_write::ruby.dir_cntrl1     77294478                       # Write bandwidth from this memory (bytes/s)
system.mem_ctrls1.bw_write::total            77294478                       # Write bandwidth from this memory (bytes/s)
system.mem_ctrls1.bw_total::ruby.dir_cntrl1    724515407                       # Total bandwidth to/from this memory (bytes/s)
system.mem_ctrls1.bw_total::total           724515407                       # Total bandwidth to/from this memory (bytes/s)
system.mem_ctrls1.readReqs                     161373                       # Number of read requests accepted
system.mem_ctrls1.avgNetLat                      0.00                       # Average network latency to DRAM controller
system.mem_ctrls1.writeReqs                     19272                       # Number of write requests accepted
system.mem_ctrls1.readBursts                   161373                       # Number of DRAM read bursts, including those serviced by the write queue
system.mem_ctrls1.writeBursts                   19272                       # Number of DRAM write bursts, including those merged in the write queue
system.mem_ctrls1.bytesReadDRAM              10327296                       # Total number of bytes read from DRAM
system.mem_ctrls1.bytesReadWrQ                    576                       # Total number of bytes read from write queue
system.mem_ctrls1.bytesWritten                1231616                       # Total number of bytes written to DRAM
system.mem_ctrls1.bytesReadSys               10327872                       # Total read bytes from the system interface side
system.mem_ctrls1.bytesWrittenSys             1233408                       # Total written bytes from the system interface side
system.mem_ctrls1.servicedByWrQ                     9                       # Number of DRAM read bursts serviced by the write queue
system.mem_ctrls1.mergedWrBursts                    0                       # Number of DRAM write bursts merged with an existing one
system.mem_ctrls1.neitherReadNorWriteReqs            0                       # Number of requests that are neither read nor write
system.mem_ctrls1.perBankRdBursts::0            10360                       # Per bank write bursts
system.mem_ctrls1.perBankRdBursts::1             9994                       # Per bank write bursts
system.mem_ctrls1.perBankRdBursts::2            10116                       # Per bank write bursts
system.mem_ctrls1.perBankRdBursts::3            10050                       # Per bank write bursts
system.mem_ctrls1.perBankRdBursts::4             9641                       # Per bank write bursts
system.mem_ctrls1.perBankRdBursts::5             9319                       # Per bank write bursts
system.mem_ctrls1.perBankRdBursts::6             9785                       # Per bank write bursts
system.mem_ctrls1.perBankRdBursts::7             9663                       # Per bank write bursts
system.mem_ctrls1.perBankRdBursts::8             9686                       # Per bank write bursts
system.mem_ctrls1.perBankRdBursts::9             9961                       # Per bank write bursts
system.mem_ctrls1.perBankRdBursts::10           10448                       # Per bank write bursts
system.mem_ctrls1.perBankRdBursts::11           10557                       # Per bank write bursts
system.mem_ctrls1.perBankRdBursts::12           10887                       # Per bank write bursts
system.mem_ctrls1.perBankRdBursts::13           10885                       # Per bank write bursts
system.mem_ctrls1.perBankRdBursts::14            9918                       # Per bank write bursts
system.mem_ctrls1.perBankRdBursts::15           10094                       # Per bank write bursts
system.mem_ctrls1.perBankWrBursts::0             1257                       # Per bank write bursts
system.mem_ctrls1.perBankWrBursts::1             1108                       # Per bank write bursts
system.mem_ctrls1.perBankWrBursts::2             1199                       # Per bank write bursts
system.mem_ctrls1.perBankWrBursts::3             1234                       # Per bank write bursts
system.mem_ctrls1.perBankWrBursts::4             1074                       # Per bank write bursts
system.mem_ctrls1.perBankWrBursts::5              901                       # Per bank write bursts
system.mem_ctrls1.perBankWrBursts::6             1031                       # Per bank write bursts
system.mem_ctrls1.perBankWrBursts::7             1024                       # Per bank write bursts
system.mem_ctrls1.perBankWrBursts::8             1083                       # Per bank write bursts
system.mem_ctrls1.perBankWrBursts::9             1119                       # Per bank write bursts
system.mem_ctrls1.perBankWrBursts::10            1357                       # Per bank write bursts
system.mem_ctrls1.perBankWrBursts::11            1400                       # Per bank write bursts
system.mem_ctrls1.perBankWrBursts::12            1524                       # Per bank write bursts
system.mem_ctrls1.perBankWrBursts::13            1503                       # Per bank write bursts
system.mem_ctrls1.perBankWrBursts::14            1159                       # Per bank write bursts
system.mem_ctrls1.perBankWrBursts::15            1271                       # Per bank write bursts
system.mem_ctrls1.numRdRetry                        0                       # Number of times read queue was full causing retry
system.mem_ctrls1.numWrRetry                        0                       # Number of times write queue was full causing retry
system.mem_ctrls1.totGap                  15956670500                       # Total gap between requests
system.mem_ctrls1.readPktSize::0                    0                       # Read request sizes (log2)
system.mem_ctrls1.readPktSize::1                    0                       # Read request sizes (log2)
system.mem_ctrls1.readPktSize::2                    0                       # Read request sizes (log2)
system.mem_ctrls1.readPktSize::3                    0                       # Read request sizes (log2)
system.mem_ctrls1.readPktSize::4                    0                       # Read request sizes (log2)
system.mem_ctrls1.readPktSize::5                    0                       # Read request sizes (log2)
system.mem_ctrls1.readPktSize::6               161373                       # Read request sizes (log2)
system.mem_ctrls1.writePktSize::0                   0                       # Write request sizes (log2)
system.mem_ctrls1.writePktSize::1                   0                       # Write request sizes (log2)
system.mem_ctrls1.writePktSize::2                   0                       # Write request sizes (log2)
system.mem_ctrls1.writePktSize::3                   0                       # Write request sizes (log2)
system.mem_ctrls1.writePktSize::4                   0                       # Write request sizes (log2)
system.mem_ctrls1.writePktSize::5                   0                       # Write request sizes (log2)
system.mem_ctrls1.writePktSize::6               19272                       # Write request sizes (log2)
system.mem_ctrls1.rdQLenPdf::0                  80455                       # What read queue length does an incoming req see
system.mem_ctrls1.rdQLenPdf::1                  42103                       # What read queue length does an incoming req see
system.mem_ctrls1.rdQLenPdf::2                  20838                       # What read queue length does an incoming req see
system.mem_ctrls1.rdQLenPdf::3                  10317                       # What read queue length does an incoming req see
system.mem_ctrls1.rdQLenPdf::4                   4594                       # What read queue length does an incoming req see
system.mem_ctrls1.rdQLenPdf::5                   1830                       # What read queue length does an incoming req see
system.mem_ctrls1.rdQLenPdf::6                    790                       # What read queue length does an incoming req see
system.mem_ctrls1.rdQLenPdf::7                    297                       # What read queue length does an incoming req see
system.mem_ctrls1.rdQLenPdf::8                     98                       # What read queue length does an incoming req see
system.mem_ctrls1.rdQLenPdf::9                     34                       # What read queue length does an incoming req see
system.mem_ctrls1.rdQLenPdf::10                     5                       # What read queue length does an incoming req see
system.mem_ctrls1.rdQLenPdf::11                     2                       # What read queue length does an incoming req see
system.mem_ctrls1.rdQLenPdf::12                     1                       # What read queue length does an incoming req see
system.mem_ctrls1.rdQLenPdf::13                     0                       # What read queue length does an incoming req see
system.mem_ctrls1.rdQLenPdf::14                     0                       # What read queue length does an incoming req see
system.mem_ctrls1.rdQLenPdf::15                     0                       # What read queue length does an incoming req see
system.mem_ctrls1.rdQLenPdf::16                     0                       # What read queue length does an incoming req see
system.mem_ctrls1.rdQLenPdf::17                     0                       # What read queue length does an incoming req see
system.mem_ctrls1.rdQLenPdf::18                     0                       # What read queue length does an incoming req see
system.mem_ctrls1.rdQLenPdf::19                     0                       # What read queue length does an incoming req see
system.mem_ctrls1.rdQLenPdf::20                     0                       # What read queue length does an incoming req see
system.mem_ctrls1.rdQLenPdf::21                     0                       # What read queue length does an incoming req see
system.mem_ctrls1.rdQLenPdf::22                     0                       # What read queue length does an incoming req see
system.mem_ctrls1.rdQLenPdf::23                     0                       # What read queue length does an incoming req see
system.mem_ctrls1.rdQLenPdf::24                     0                       # What read queue length does an incoming req see
system.mem_ctrls1.rdQLenPdf::25                     0                       # What read queue length does an incoming req see
system.mem_ctrls1.rdQLenPdf::26                     0                       # What read queue length does an incoming req see
system.mem_ctrls1.rdQLenPdf::27                     0                       # What read queue length does an incoming req see
system.mem_ctrls1.rdQLenPdf::28                     0                       # What read queue length does an incoming req see
system.mem_ctrls1.rdQLenPdf::29                     0                       # What read queue length does an incoming req see
system.mem_ctrls1.rdQLenPdf::30                     0                       # What read queue length does an incoming req see
system.mem_ctrls1.rdQLenPdf::31                     0                       # What read queue length does an incoming req see
system.mem_ctrls1.wrQLenPdf::0                      1                       # What write queue length does an incoming req see
system.mem_ctrls1.wrQLenPdf::1                      1                       # What write queue length does an incoming req see
system.mem_ctrls1.wrQLenPdf::2                      1                       # What write queue length does an incoming req see
system.mem_ctrls1.wrQLenPdf::3                      1                       # What write queue length does an incoming req see
system.mem_ctrls1.wrQLenPdf::4                      1                       # What write queue length does an incoming req see
system.mem_ctrls1.wrQLenPdf::5                      1                       # What write queue length does an incoming req see
system.mem_ctrls1.wrQLenPdf::6                      1                       # What write queue length does an incoming req see
system.mem_ctrls1.wrQLenPdf::7                      1                       # What write queue length does an incoming req see
system.mem_ctrls1.wrQLenPdf::8                      1                       # What write queue length does an incoming req see
system.mem_ctrls1.wrQLenPdf::9                      1                       # What write queue length does an incoming req see
system.mem_ctrls1.wrQLenPdf::10                     1                       # What write queue length does an incoming req see
system.mem_ctrls1.wrQLenPdf::11                     1                       # What write queue length does an incoming req see
system.mem_ctrls1.wrQLenPdf::12                     1                       # What write queue length does an incoming req see
system.mem_ctrls1.wrQLenPdf::13                     1                       # What write queue length does an incoming req see
system.mem_ctrls1.wrQLenPdf::14                     1                       # What write queue length does an incoming req see
system.mem_ctrls1.wrQLenPdf::15                   305                       # What write queue length does an incoming req see
system.mem_ctrls1.wrQLenPdf::16                   367                       # What write queue length does an incoming req see
system.mem_ctrls1.wrQLenPdf::17                   798                       # What write queue length does an incoming req see
system.mem_ctrls1.wrQLenPdf::18                  1084                       # What write queue length does an incoming req see
system.mem_ctrls1.wrQLenPdf::19                  1198                       # What write queue length does an incoming req see
system.mem_ctrls1.wrQLenPdf::20                  1203                       # What write queue length does an incoming req see
system.mem_ctrls1.wrQLenPdf::21                  1195                       # What write queue length does an incoming req see
system.mem_ctrls1.wrQLenPdf::22                  1187                       # What write queue length does an incoming req see
system.mem_ctrls1.wrQLenPdf::23                  1194                       # What write queue length does an incoming req see
system.mem_ctrls1.wrQLenPdf::24                  1187                       # What write queue length does an incoming req see
system.mem_ctrls1.wrQLenPdf::25                  1189                       # What write queue length does an incoming req see
system.mem_ctrls1.wrQLenPdf::26                  1194                       # What write queue length does an incoming req see
system.mem_ctrls1.wrQLenPdf::27                  1187                       # What write queue length does an incoming req see
system.mem_ctrls1.wrQLenPdf::28                  1183                       # What write queue length does an incoming req see
system.mem_ctrls1.wrQLenPdf::29                  1184                       # What write queue length does an incoming req see
system.mem_ctrls1.wrQLenPdf::30                  1192                       # What write queue length does an incoming req see
system.mem_ctrls1.wrQLenPdf::31                  1193                       # What write queue length does an incoming req see
system.mem_ctrls1.wrQLenPdf::32                  1179                       # What write queue length does an incoming req see
system.mem_ctrls1.wrQLenPdf::33                    34                       # What write queue length does an incoming req see
system.mem_ctrls1.wrQLenPdf::34                     3                       # What write queue length does an incoming req see
system.mem_ctrls1.wrQLenPdf::35                     1                       # What write queue length does an incoming req see
system.mem_ctrls1.wrQLenPdf::36                     0                       # What write queue length does an incoming req see
system.mem_ctrls1.wrQLenPdf::37                     0                       # What write queue length does an incoming req see
system.mem_ctrls1.wrQLenPdf::38                     0                       # What write queue length does an incoming req see
system.mem_ctrls1.wrQLenPdf::39                     0                       # What write queue length does an incoming req see
system.mem_ctrls1.wrQLenPdf::40                     0                       # What write queue length does an incoming req see
system.mem_ctrls1.wrQLenPdf::41                     0                       # What write queue length does an incoming req see
system.mem_ctrls1.wrQLenPdf::42                     0                       # What write queue length does an incoming req see
system.mem_ctrls1.wrQLenPdf::43                     0                       # What write queue length does an incoming req see
system.mem_ctrls1.wrQLenPdf::44                     0                       # What write queue length does an incoming req see
system.mem_ctrls1.wrQLenPdf::45                     0                       # What write queue length does an incoming req see
system.mem_ctrls1.wrQLenPdf::46                     0                       # What write queue length does an incoming req see
system.mem_ctrls1.wrQLenPdf::47                     0                       # What write queue length does an incoming req see
system.mem_ctrls1.wrQLenPdf::48                     0                       # What write queue length does an incoming req see
system.mem_ctrls1.wrQLenPdf::49                     0                       # What write queue length does an incoming req see
system.mem_ctrls1.wrQLenPdf::50                     0                       # What write queue length does an incoming req see
system.mem_ctrls1.wrQLenPdf::51                     0                       # What write queue length does an incoming req see
system.mem_ctrls1.wrQLenPdf::52                     0                       # What write queue length does an incoming req see
system.mem_ctrls1.wrQLenPdf::53                     0                       # What write queue length does an incoming req see
system.mem_ctrls1.wrQLenPdf::54                     0                       # What write queue length does an incoming req see
system.mem_ctrls1.wrQLenPdf::55                     0                       # What write queue length does an incoming req see
system.mem_ctrls1.wrQLenPdf::56                     0                       # What write queue length does an incoming req see
system.mem_ctrls1.wrQLenPdf::57                     0                       # What write queue length does an incoming req see
system.mem_ctrls1.wrQLenPdf::58                     0                       # What write queue length does an incoming req see
system.mem_ctrls1.wrQLenPdf::59                     0                       # What write queue length does an incoming req see
system.mem_ctrls1.wrQLenPdf::60                     0                       # What write queue length does an incoming req see
system.mem_ctrls1.wrQLenPdf::61                     0                       # What write queue length does an incoming req see
system.mem_ctrls1.wrQLenPdf::62                     0                       # What write queue length does an incoming req see
system.mem_ctrls1.wrQLenPdf::63                     0                       # What write queue length does an incoming req see
system.mem_ctrls1.bytesPerActivate::samples       101568                       # Bytes accessed per row activation
system.mem_ctrls1.bytesPerActivate::mean   113.797732                       # Bytes accessed per row activation
system.mem_ctrls1.bytesPerActivate::gmean    88.173607                       # Bytes accessed per row activation
system.mem_ctrls1.bytesPerActivate::stdev   120.975982                       # Bytes accessed per row activation
system.mem_ctrls1.bytesPerActivate::0-127        73001     71.87%     71.87% # Bytes accessed per row activation
system.mem_ctrls1.bytesPerActivate::128-255        18223     17.94%     89.82% # Bytes accessed per row activation
system.mem_ctrls1.bytesPerActivate::256-383         4186      4.12%     93.94% # Bytes accessed per row activation
system.mem_ctrls1.bytesPerActivate::384-511         2740      2.70%     96.63% # Bytes accessed per row activation
system.mem_ctrls1.bytesPerActivate::512-639         1703      1.68%     98.31% # Bytes accessed per row activation
system.mem_ctrls1.bytesPerActivate::640-767         1254      1.23%     99.55% # Bytes accessed per row activation
system.mem_ctrls1.bytesPerActivate::768-895          222      0.22%     99.76% # Bytes accessed per row activation
system.mem_ctrls1.bytesPerActivate::896-1023          113      0.11%     99.88% # Bytes accessed per row activation
system.mem_ctrls1.bytesPerActivate::1024-1151          126      0.12%    100.00% # Bytes accessed per row activation
system.mem_ctrls1.bytesPerActivate::total       101568                       # Bytes accessed per row activation
system.mem_ctrls1.rdPerTurnAround::samples         1159                       # Reads before turning the bus around for writes
system.mem_ctrls1.rdPerTurnAround::mean    139.214840                       # Reads before turning the bus around for writes
system.mem_ctrls1.rdPerTurnAround::gmean    49.619495                       # Reads before turning the bus around for writes
system.mem_ctrls1.rdPerTurnAround::stdev  1892.501770                       # Reads before turning the bus around for writes
system.mem_ctrls1.rdPerTurnAround::0-2047         1157     99.83%     99.83% # Reads before turning the bus around for writes
system.mem_ctrls1.rdPerTurnAround::2048-4095            1      0.09%     99.91% # Reads before turning the bus around for writes
system.mem_ctrls1.rdPerTurnAround::63488-65535            1      0.09%    100.00% # Reads before turning the bus around for writes
system.mem_ctrls1.rdPerTurnAround::total         1159                       # Reads before turning the bus around for writes
system.mem_ctrls1.wrPerTurnAround::samples         1159                       # Writes before turning the bus around for reads
system.mem_ctrls1.wrPerTurnAround::mean     16.603969                       # Writes before turning the bus around for reads
system.mem_ctrls1.wrPerTurnAround::gmean    16.579983                       # Writes before turning the bus around for reads
system.mem_ctrls1.wrPerTurnAround::stdev     0.907283                       # Writes before turning the bus around for reads
system.mem_ctrls1.wrPerTurnAround::16             789     68.08%     68.08% # Writes before turning the bus around for reads
system.mem_ctrls1.wrPerTurnAround::17              47      4.06%     72.13% # Writes before turning the bus around for reads
system.mem_ctrls1.wrPerTurnAround::18             317     27.35%     99.48% # Writes before turning the bus around for reads
system.mem_ctrls1.wrPerTurnAround::19               5      0.43%     99.91% # Writes before turning the bus around for reads
system.mem_ctrls1.wrPerTurnAround::20               1      0.09%    100.00% # Writes before turning the bus around for reads
system.mem_ctrls1.wrPerTurnAround::total         1159                       # Writes before turning the bus around for reads
system.mem_ctrls1.totQLat                  4586602750                       # Total ticks spent queuing
system.mem_ctrls1.totMemAccLat             7612177750                       # Total ticks spent from burst creation until serviced by the DRAM
system.mem_ctrls1.totBusLat                 806820000                       # Total ticks spent in databus transfers
system.mem_ctrls1.avgQLat                    28423.95                       # Average queueing delay per DRAM burst
system.mem_ctrls1.avgBusLat                   5000.00                       # Average bus latency per DRAM burst
system.mem_ctrls1.avgMemAccLat               47173.95                       # Average memory access latency per DRAM burst
system.mem_ctrls1.avgRdBW                      647.18                       # Average DRAM read bandwidth in MiByte/s
system.mem_ctrls1.avgWrBW                       77.18                       # Average achieved write bandwidth in MiByte/s
system.mem_ctrls1.avgRdBWSys                   647.22                       # Average system read bandwidth in MiByte/s
system.mem_ctrls1.avgWrBWSys                    77.29                       # Average system write bandwidth in MiByte/s
system.mem_ctrls1.peakBW                     12800.00                       # Theoretical peak bandwidth in MiByte/s
system.mem_ctrls1.busUtil                        5.66                       # Data bus utilization in percentage
system.mem_ctrls1.busUtilRead                    5.06                       # Data bus utilization in percentage for reads
system.mem_ctrls1.busUtilWrite                   0.60                       # Data bus utilization in percentage for writes
system.mem_ctrls1.avgRdQLen                      1.57                       # Average read queue length when enqueuing
system.mem_ctrls1.avgWrQLen                     13.10                       # Average write queue length when enqueuing
system.mem_ctrls1.readRowHits                   74823                       # Number of row buffer hits during reads
system.mem_ctrls1.writeRowHits                   4212                       # Number of row buffer hits during writes
system.mem_ctrls1.readRowHitRate                46.37                       # Row buffer hit rate for reads
system.mem_ctrls1.writeRowHitRate               21.86                       # Row buffer hit rate for writes
system.mem_ctrls1.avgGap                     88331.65                       # Average gap between requests
system.mem_ctrls1.pageHitRate                   43.75                       # Row buffer hit rate, read and write combined
system.mem_ctrls1_0.actEnergy               349767180                       # Energy for activate commands per rank (pJ)
system.mem_ctrls1_0.preEnergy               185898075                       # Energy for precharge commands per rank (pJ)
system.mem_ctrls1_0.readEnergy              563545920                       # Energy for read commands per rank (pJ)
system.mem_ctrls1_0.writeEnergy              46082160                       # Energy for write commands per rank (pJ)
system.mem_ctrls1_0.refreshEnergy        1242802080.000000                       # Energy for refresh commands per rank (pJ)
system.mem_ctrls1_0.actBackEnergy          1488702060                       # Energy for active background per rank (pJ)
system.mem_ctrls1_0.preBackEnergy            37458240                       # Energy for precharge background per rank (pJ)
system.mem_ctrls1_0.actPowerDownEnergy     5301055860                       # Energy for active power-down per rank (pJ)
system.mem_ctrls1_0.prePowerDownEnergy      258202080                       # Energy for precharge power-down per rank (pJ)
system.mem_ctrls1_0.selfRefreshEnergy        78053985                       # Energy for self refresh per rank (pJ)
system.mem_ctrls1_0.totalEnergy            9551682360                       # Total energy per rank (pJ)
system.mem_ctrls1_0.averagePower           598.579102                       # Core power per rank (mW)
system.mem_ctrls1_0.totalIdleTime         12594397250                       # Total Idle time Per DRAM Rank
system.mem_ctrls1_0.memoryStateTime::IDLE     15309000                       # Time in different power states
system.mem_ctrls1_0.memoryStateTime::REF    525822000                       # Time in different power states
system.mem_ctrls1_0.memoryStateTime::SREF    297237000                       # Time in different power states
system.mem_ctrls1_0.memoryStateTime::PRE_PDN    672402250                       # Time in different power states
system.mem_ctrls1_0.memoryStateTime::ACT   2821577250                       # Time in different power states
system.mem_ctrls1_0.memoryStateTime::ACT_PDN  11624911500                       # Time in different power states
system.mem_ctrls1_1.actEnergy               375464040                       # Energy for activate commands per rank (pJ)
system.mem_ctrls1_1.preEnergy               199552485                       # Energy for precharge commands per rank (pJ)
system.mem_ctrls1_1.readEnergy              588593040                       # Energy for read commands per rank (pJ)
system.mem_ctrls1_1.writeEnergy              54371520                       # Energy for write commands per rank (pJ)
system.mem_ctrls1_1.refreshEnergy        1239728880.000000                       # Energy for refresh commands per rank (pJ)
system.mem_ctrls1_1.actBackEnergy          1538753190                       # Energy for active background per rank (pJ)
system.mem_ctrls1_1.preBackEnergy            35434080                       # Energy for precharge background per rank (pJ)
system.mem_ctrls1_1.actPowerDownEnergy     5340070650                       # Energy for active power-down per rank (pJ)
system.mem_ctrls1_1.prePowerDownEnergy      184930080                       # Energy for precharge power-down per rank (pJ)
system.mem_ctrls1_1.selfRefreshEnergy        75446880                       # Energy for self refresh per rank (pJ)
system.mem_ctrls1_1.totalEnergy            9632344845                       # Total energy per rank (pJ)
system.mem_ctrls1_1.averagePower           603.634010                       # Core power per rank (mW)
system.mem_ctrls1_1.totalIdleTime         12489702250                       # Total Idle time Per DRAM Rank
system.mem_ctrls1_1.memoryStateTime::IDLE     13120000                       # Time in different power states
system.mem_ctrls1_1.memoryStateTime::REF    524468000                       # Time in different power states
system.mem_ctrls1_1.memoryStateTime::SREF    298253500                       # Time in different power states
system.mem_ctrls1_1.memoryStateTime::PRE_PDN    481469000                       # Time in different power states
system.mem_ctrls1_1.memoryStateTime::ACT   2928391250                       # Time in different power states
system.mem_ctrls1_1.memoryStateTime::ACT_PDN  11711557250                       # Time in different power states
system.mem_ctrls2.pwrStateResidencyTicks::UNDEFINED  15957259000                       # Cumulative time (in ticks) in various power states
system.mem_ctrls2.bytes_read::ruby.dir_cntrl2     10341632                       # Number of bytes read from this memory
system.mem_ctrls2.bytes_read::total          10341632                       # Number of bytes read from this memory
system.mem_ctrls2.bytes_written::ruby.dir_cntrl2      1236352                       # Number of bytes written to this memory
system.mem_ctrls2.bytes_written::total        1236352                       # Number of bytes written to this memory
system.mem_ctrls2.num_reads::ruby.dir_cntrl2       161588                       # Number of read requests responded to by this memory
system.mem_ctrls2.num_reads::total             161588                       # Number of read requests responded to by this memory
system.mem_ctrls2.num_writes::ruby.dir_cntrl2        19318                       # Number of write requests responded to by this memory
system.mem_ctrls2.num_writes::total             19318                       # Number of write requests responded to by this memory
system.mem_ctrls2.bw_read::ruby.dir_cntrl2    648083233                       # Total read bandwidth from this memory (bytes/s)
system.mem_ctrls2.bw_read::total            648083233                       # Total read bandwidth from this memory (bytes/s)
system.mem_ctrls2.bw_write::ruby.dir_cntrl2     77478971                       # Write bandwidth from this memory (bytes/s)
system.mem_ctrls2.bw_write::total            77478971                       # Write bandwidth from this memory (bytes/s)
system.mem_ctrls2.bw_total::ruby.dir_cntrl2    725562203                       # Total bandwidth to/from this memory (bytes/s)
system.mem_ctrls2.bw_total::total           725562203                       # Total bandwidth to/from this memory (bytes/s)
system.mem_ctrls2.readReqs                     161588                       # Number of read requests accepted
system.mem_ctrls2.avgNetLat                      0.00                       # Average network latency to DRAM controller
system.mem_ctrls2.writeReqs                     19318                       # Number of write requests accepted
system.mem_ctrls2.readBursts                   161588                       # Number of DRAM read bursts, including those serviced by the write queue
system.mem_ctrls2.writeBursts                   19318                       # Number of DRAM write bursts, including those merged in the write queue
system.mem_ctrls2.bytesReadDRAM              10341056                       # Total number of bytes read from DRAM
system.mem_ctrls2.bytesReadWrQ                    576                       # Total number of bytes read from write queue
system.mem_ctrls2.bytesWritten                1234944                       # Total number of bytes written to DRAM
system.mem_ctrls2.bytesReadSys               10341632                       # Total read bytes from the system interface side
system.mem_ctrls2.bytesWrittenSys             1236352                       # Total written bytes from the system interface side
system.mem_ctrls2.servicedByWrQ                     9                       # Number of DRAM read bursts serviced by the write queue
system.mem_ctrls2.mergedWrBursts                    0                       # Number of DRAM write bursts merged with an existing one
system.mem_ctrls2.neitherReadNorWriteReqs            0                       # Number of requests that are neither read nor write
system.mem_ctrls2.perBankRdBursts::0            10341                       # Per bank write bursts
system.mem_ctrls2.perBankRdBursts::1             9989                       # Per bank write bursts
system.mem_ctrls2.perBankRdBursts::2            10111                       # Per bank write bursts
system.mem_ctrls2.perBankRdBursts::3            10060                       # Per bank write bursts
system.mem_ctrls2.perBankRdBursts::4             9620                       # Per bank write bursts
system.mem_ctrls2.perBankRdBursts::5             9310                       # Per bank write bursts
system.mem_ctrls2.perBankRdBursts::6             9810                       # Per bank write bursts
system.mem_ctrls2.perBankRdBursts::7             9701                       # Per bank write bursts
system.mem_ctrls2.perBankRdBursts::8             9730                       # Per bank write bursts
system.mem_ctrls2.perBankRdBursts::9             9942                       # Per bank write bursts
system.mem_ctrls2.perBankRdBursts::10           10494                       # Per bank write bursts
system.mem_ctrls2.perBankRdBursts::11           10548                       # Per bank write bursts
system.mem_ctrls2.perBankRdBursts::12           10905                       # Per bank write bursts
system.mem_ctrls2.perBankRdBursts::13           10970                       # Per bank write bursts
system.mem_ctrls2.perBankRdBursts::14            9959                       # Per bank write bursts
system.mem_ctrls2.perBankRdBursts::15           10089                       # Per bank write bursts
system.mem_ctrls2.perBankWrBursts::0             1255                       # Per bank write bursts
system.mem_ctrls2.perBankWrBursts::1             1104                       # Per bank write bursts
system.mem_ctrls2.perBankWrBursts::2             1212                       # Per bank write bursts
system.mem_ctrls2.perBankWrBursts::3             1213                       # Per bank write bursts
system.mem_ctrls2.perBankWrBursts::4             1049                       # Per bank write bursts
system.mem_ctrls2.perBankWrBursts::5              890                       # Per bank write bursts
system.mem_ctrls2.perBankWrBursts::6             1037                       # Per bank write bursts
system.mem_ctrls2.perBankWrBursts::7             1019                       # Per bank write bursts
system.mem_ctrls2.perBankWrBursts::8             1089                       # Per bank write bursts
system.mem_ctrls2.perBankWrBursts::9             1114                       # Per bank write bursts
system.mem_ctrls2.perBankWrBursts::10            1393                       # Per bank write bursts
system.mem_ctrls2.perBankWrBursts::11            1404                       # Per bank write bursts
system.mem_ctrls2.perBankWrBursts::12            1577                       # Per bank write bursts
system.mem_ctrls2.perBankWrBursts::13            1503                       # Per bank write bursts
system.mem_ctrls2.perBankWrBursts::14            1168                       # Per bank write bursts
system.mem_ctrls2.perBankWrBursts::15            1269                       # Per bank write bursts
system.mem_ctrls2.numRdRetry                        0                       # Number of times read queue was full causing retry
system.mem_ctrls2.numWrRetry                        0                       # Number of times write queue was full causing retry
system.mem_ctrls2.totGap                  15956317000                       # Total gap between requests
system.mem_ctrls2.readPktSize::0                    0                       # Read request sizes (log2)
system.mem_ctrls2.readPktSize::1                    0                       # Read request sizes (log2)
system.mem_ctrls2.readPktSize::2                    0                       # Read request sizes (log2)
system.mem_ctrls2.readPktSize::3                    0                       # Read request sizes (log2)
system.mem_ctrls2.readPktSize::4                    0                       # Read request sizes (log2)
system.mem_ctrls2.readPktSize::5                    0                       # Read request sizes (log2)
system.mem_ctrls2.readPktSize::6               161588                       # Read request sizes (log2)
system.mem_ctrls2.writePktSize::0                   0                       # Write request sizes (log2)
system.mem_ctrls2.writePktSize::1                   0                       # Write request sizes (log2)
system.mem_ctrls2.writePktSize::2                   0                       # Write request sizes (log2)
system.mem_ctrls2.writePktSize::3                   0                       # Write request sizes (log2)
system.mem_ctrls2.writePktSize::4                   0                       # Write request sizes (log2)
system.mem_ctrls2.writePktSize::5                   0                       # Write request sizes (log2)
system.mem_ctrls2.writePktSize::6               19318                       # Write request sizes (log2)
system.mem_ctrls2.rdQLenPdf::0                  80202                       # What read queue length does an incoming req see
system.mem_ctrls2.rdQLenPdf::1                  42284                       # What read queue length does an incoming req see
system.mem_ctrls2.rdQLenPdf::2                  21067                       # What read queue length does an incoming req see
system.mem_ctrls2.rdQLenPdf::3                  10209                       # What read queue length does an incoming req see
system.mem_ctrls2.rdQLenPdf::4                   4658                       # What read queue length does an incoming req see
system.mem_ctrls2.rdQLenPdf::5                   1986                       # What read queue length does an incoming req see
system.mem_ctrls2.rdQLenPdf::6                    765                       # What read queue length does an incoming req see
system.mem_ctrls2.rdQLenPdf::7                    264                       # What read queue length does an incoming req see
system.mem_ctrls2.rdQLenPdf::8                     88                       # What read queue length does an incoming req see
system.mem_ctrls2.rdQLenPdf::9                     37                       # What read queue length does an incoming req see
system.mem_ctrls2.rdQLenPdf::10                    15                       # What read queue length does an incoming req see
system.mem_ctrls2.rdQLenPdf::11                     2                       # What read queue length does an incoming req see
system.mem_ctrls2.rdQLenPdf::12                     1                       # What read queue length does an incoming req see
system.mem_ctrls2.rdQLenPdf::13                     1                       # What read queue length does an incoming req see
system.mem_ctrls2.rdQLenPdf::14                     0                       # What read queue length does an incoming req see
system.mem_ctrls2.rdQLenPdf::15                     0                       # What read queue length does an incoming req see
system.mem_ctrls2.rdQLenPdf::16                     0                       # What read queue length does an incoming req see
system.mem_ctrls2.rdQLenPdf::17                     0                       # What read queue length does an incoming req see
system.mem_ctrls2.rdQLenPdf::18                     0                       # What read queue length does an incoming req see
system.mem_ctrls2.rdQLenPdf::19                     0                       # What read queue length does an incoming req see
system.mem_ctrls2.rdQLenPdf::20                     0                       # What read queue length does an incoming req see
system.mem_ctrls2.rdQLenPdf::21                     0                       # What read queue length does an incoming req see
system.mem_ctrls2.rdQLenPdf::22                     0                       # What read queue length does an incoming req see
system.mem_ctrls2.rdQLenPdf::23                     0                       # What read queue length does an incoming req see
system.mem_ctrls2.rdQLenPdf::24                     0                       # What read queue length does an incoming req see
system.mem_ctrls2.rdQLenPdf::25                     0                       # What read queue length does an incoming req see
system.mem_ctrls2.rdQLenPdf::26                     0                       # What read queue length does an incoming req see
system.mem_ctrls2.rdQLenPdf::27                     0                       # What read queue length does an incoming req see
system.mem_ctrls2.rdQLenPdf::28                     0                       # What read queue length does an incoming req see
system.mem_ctrls2.rdQLenPdf::29                     0                       # What read queue length does an incoming req see
system.mem_ctrls2.rdQLenPdf::30                     0                       # What read queue length does an incoming req see
system.mem_ctrls2.rdQLenPdf::31                     0                       # What read queue length does an incoming req see
system.mem_ctrls2.wrQLenPdf::0                      1                       # What write queue length does an incoming req see
system.mem_ctrls2.wrQLenPdf::1                      1                       # What write queue length does an incoming req see
system.mem_ctrls2.wrQLenPdf::2                      1                       # What write queue length does an incoming req see
system.mem_ctrls2.wrQLenPdf::3                      1                       # What write queue length does an incoming req see
system.mem_ctrls2.wrQLenPdf::4                      1                       # What write queue length does an incoming req see
system.mem_ctrls2.wrQLenPdf::5                      1                       # What write queue length does an incoming req see
system.mem_ctrls2.wrQLenPdf::6                      1                       # What write queue length does an incoming req see
system.mem_ctrls2.wrQLenPdf::7                      1                       # What write queue length does an incoming req see
system.mem_ctrls2.wrQLenPdf::8                      1                       # What write queue length does an incoming req see
system.mem_ctrls2.wrQLenPdf::9                      1                       # What write queue length does an incoming req see
system.mem_ctrls2.wrQLenPdf::10                     1                       # What write queue length does an incoming req see
system.mem_ctrls2.wrQLenPdf::11                     1                       # What write queue length does an incoming req see
system.mem_ctrls2.wrQLenPdf::12                     1                       # What write queue length does an incoming req see
system.mem_ctrls2.wrQLenPdf::13                     1                       # What write queue length does an incoming req see
system.mem_ctrls2.wrQLenPdf::14                     1                       # What write queue length does an incoming req see
system.mem_ctrls2.wrQLenPdf::15                   307                       # What write queue length does an incoming req see
system.mem_ctrls2.wrQLenPdf::16                   374                       # What write queue length does an incoming req see
system.mem_ctrls2.wrQLenPdf::17                   790                       # What write queue length does an incoming req see
system.mem_ctrls2.wrQLenPdf::18                  1102                       # What write queue length does an incoming req see
system.mem_ctrls2.wrQLenPdf::19                  1194                       # What write queue length does an incoming req see
system.mem_ctrls2.wrQLenPdf::20                  1211                       # What write queue length does an incoming req see
system.mem_ctrls2.wrQLenPdf::21                  1194                       # What write queue length does an incoming req see
[...]
system.ruby.L2Cache_Controller.SS.L2_Replacement_clean |         565      6.12%      6.12% |         597      6.46%     12.58% |         617      6.68%     19.26% |         558      6.04%     25.30% |         603      6.53%     31.83% |         631      6.83%     38.66% |         584      6.32%     44.98% |         574      6.21%     51.19% |         631      6.83%     58.02% |         473      5.12%     63.14% |         516      5.59%     68.73% |         577      6.25%     74.97% |         564      6.11%     81.08% |         568      6.15%     87.23% |         637      6.90%     94.12% |         543      5.88%    100.00%
system.ruby.L2Cache_Controller.SS.L2_Replacement_clean::total         9238                      
system.ruby.L2Cache_Controller.M.L1_GET_INSTR |          14     25.00%     25.00% |           0      0.00%     25.00% |           0      0.00%     25.00% |           0      0.00%     25.00% |           0      0.00%     25.00% |           0      0.00%     25.00% |           0      0.00%     25.00% |           0      0.00%     25.00% |          14     25.00%     50.00% |          14     25.00%     75.00% |           0      0.00%     75.00% |           0      0.00%     75.00% |           0      0.00%     75.00% |           0      0.00%     75.00% |          14     25.00%    100.00% |           0      0.00%    100.00%
system.ruby.L2Cache_Controller.M.L1_GET_INSTR::total           56                      
system.ruby.L2Cache_Controller.M.L1_GETS |       10434      6.17%      6.17% |       10575      6.25%     12.42% |       10483      6.20%     18.61% |       10642      6.29%     24.90% |       10359      6.12%     31.03% |       10156      6.00%     37.03% |       10266      6.07%     43.10% |       10434      6.17%     49.27% |       10499      6.21%     55.47% |       10334      6.11%     61.58% |       10516      6.22%     67.79% |       11095      6.56%     74.35% |       11493      6.79%     81.15% |       11110      6.57%     87.71% |       10792      6.38%     94.09% |        9997      5.91%    100.00%
system.ruby.L2Cache_Controller.M.L1_GETS::total       169185                      
system.ruby.L2Cache_Controller.M.L1_GETX |        1319      6.16%      6.16% |        1391      6.49%     12.65% |        1368      6.39%     19.04% |        1272      5.94%     24.98% |        1330      6.21%     31.19% |        1255      5.86%     37.05% |        1210      5.65%     42.70% |        1379      6.44%     49.14% |        1278      5.97%     55.11% |        1339      6.25%     61.36% |        1313      6.13%     67.49% |        1260      5.88%     73.37% |        1863      8.70%     82.07% |        1199      5.60%     87.67% |        1286      6.00%     93.67% |        1355      6.33%    100.00%
system.ruby.L2Cache_Controller.M.L1_GETX::total        21417                      
system.ruby.L2Cache_Controller.M.L2_Replacement |        4899      6.38%      6.38% |        4755      6.19%     12.57% |        4767      6.21%     18.77% |        4843      6.31%     25.08% |        4725      6.15%     31.23% |        4796      6.24%     37.47% |        4742      6.17%     43.65% |        4797      6.25%     49.89% |        4824      6.28%     56.17% |        4719      6.14%     62.32% |        4761      6.20%     68.52% |        4761      6.20%     74.71% |        4831      6.29%     81.00% |        4858      6.32%     87.33% |        4914      6.40%     93.72% |        4820      6.28%    100.00%
system.ruby.L2Cache_Controller.M.L2_Replacement::total        76812                      
system.ruby.L2Cache_Controller.M.L2_Replacement_clean |        3060      6.30%      6.30% |        2987      6.15%     12.45% |        2897      5.96%     18.42% |        3011      6.20%     24.62% |        2930      6.03%     30.65% |        2985      6.15%     36.79% |        3052      6.28%     43.08% |        3094      6.37%     49.45% |        3109      6.40%     55.85% |        2968      6.11%     61.96% |        3027      6.23%     68.19% |        3080      6.34%     74.54% |        3117      6.42%     80.95% |        3095      6.37%     87.33% |        3045      6.27%     93.60% |        3110      6.40%    100.00%
system.ruby.L2Cache_Controller.M.L2_Replacement_clean::total        48567                      
system.ruby.L2Cache_Controller.MT.L1_GETS |          70      3.95%      3.95% |          70      3.95%      7.90% |          98      5.53%     13.43% |          98      5.53%     18.96% |          98      5.53%     24.49% |         140      7.90%     32.39% |         140      7.90%     40.29% |         140      7.90%     48.19% |         140      7.90%     56.09% |         140      7.90%     64.00% |         138      7.79%     71.78% |         136      7.67%     79.46% |         112      6.32%     85.78% |         112      6.32%     92.10% |          70      3.95%     96.05% |          70      3.95%    100.00%
system.ruby.L2Cache_Controller.MT.L1_GETS::total         1772                      
system.ruby.L2Cache_Controller.MT.L1_GETX |           0      0.00%      0.00% |           0      0.00%      0.00% |           0      0.00%      0.00% |           0      0.00%      0.00% |           0      0.00%      0.00% |           0      0.00%      0.00% |           0      0.00%      0.00% |           0      0.00%      0.00% |           0      0.00%      0.00% |           0      0.00%      0.00% |           1     33.33%     33.33% |           2     66.67%    100.00% |           0      0.00%    100.00% |           0      0.00%    100.00% |           0      0.00%    100.00% |           0      0.00%    100.00%
system.ruby.L2Cache_Controller.MT.L1_GETX::total            3                      
system.ruby.L2Cache_Controller.MT.L1_PUTX |       49992      6.24%      6.24% |       49993      6.24%     12.48% |       49652      6.20%     18.68% |       50118      6.26%     24.94% |       49597      6.19%     31.13% |       49512      6.18%     37.31% |       49649      6.20%     43.51% |       50051      6.25%     49.76% |       50084      6.25%     56.01% |       49669      6.20%     62.21% |       49964      6.24%     68.45% |       50524      6.31%     74.75% |       51751      6.46%     81.21% |       50639      6.32%     87.53% |       50286      6.28%     93.81% |       49567      6.19%    100.00%
system.ruby.L2Cache_Controller.MT.L1_PUTX::total       801048                      
system.ruby.L2Cache_Controller.MT.L2_Replacement |           4      4.82%      4.82% |           6      7.23%     12.05% |          10     12.05%     24.10% |          11     13.25%     37.35% |           9     10.84%     48.19% |           6      7.23%     55.42% |           6      7.23%     62.65% |           7      8.43%     71.08% |           6      7.23%     78.31% |           4      4.82%     83.13% |           3      3.61%     86.75% |           4      4.82%     91.57% |           4      4.82%     96.39% |           0      0.00%     96.39% |           3      3.61%    100.00% |           0      0.00%    100.00%
system.ruby.L2Cache_Controller.MT.L2_Replacement::total           83                      
system.ruby.L2Cache_Controller.MT.L2_Replacement_clean |          31      6.54%      6.54% |          26      5.49%     12.03% |          18      3.80%     15.82% |          25      5.27%     21.10% |          31      6.54%     27.64% |          29      6.12%     33.76% |          37      7.81%     41.56% |          31      6.54%     48.10% |          31      6.54%     54.64% |          31      6.54%     61.18% |          25      5.27%     66.46% |          29      6.12%     72.57% |          31      6.54%     79.11% |          35      7.38%     86.50% |          32      6.75%     93.25% |          32      6.75%    100.00%
system.ruby.L2Cache_Controller.MT.L2_Replacement_clean::total          474                      
system.ruby.L2Cache_Controller.M_I.Mem_Ack |        8561      6.33%      6.33% |        8373      6.19%     12.52% |        8309      6.15%     18.67% |        8452      6.25%     24.92% |        8299      6.14%     31.06% |        8452      6.25%     37.31% |        8424      6.23%     43.54% |        8506      6.29%     49.83% |        8605      6.36%     56.19% |        8198      6.06%     62.26% |        8336      6.17%     68.42% |        8452      6.25%     74.67% |        8550      6.32%     81.00% |        8558      6.33%     87.33% |        8631      6.38%     93.71% |        8506      6.29%    100.00%
system.ruby.L2Cache_Controller.M_I.Mem_Ack::total       135212                      
system.ruby.L2Cache_Controller.MT_I.WB_Data |           2      5.71%      5.71% |           5     14.29%     20.00% |           4     11.43%     31.43% |           4     11.43%     42.86% |           3      8.57%     51.43% |           2      5.71%     57.14% |           3      8.57%     65.71% |           2      5.71%     71.43% |           3      8.57%     80.00% |           3      8.57%     88.57% |           0      0.00%     88.57% |           2      5.71%     94.29% |           1      2.86%     97.14% |           0      0.00%     97.14% |           1      2.86%    100.00% |           0      0.00%    100.00%
system.ruby.L2Cache_Controller.MT_I.WB_Data::total           35                      
system.ruby.L2Cache_Controller.MT_I.Ack_all |           2      4.17%      4.17% |           1      2.08%      6.25% |           6     12.50%     18.75% |           7     14.58%     33.33% |           6     12.50%     45.83% |           4      8.33%     54.17% |           3      6.25%     60.42% |           5     10.42%     70.83% |           3      6.25%     77.08% |           1      2.08%     79.17% |           3      6.25%     85.42% |           2      4.17%     89.58% |           3      6.25%     95.83% |           0      0.00%     95.83% |           2      4.17%    100.00% |           0      0.00%    100.00%
system.ruby.L2Cache_Controller.MT_I.Ack_all::total           48                      
system.ruby.L2Cache_Controller.MCT_I.WB_Data |          30      6.77%      6.77% |          25      5.64%     12.42% |          18      4.06%     16.48% |          23      5.19%     21.67% |          26      5.87%     27.54% |          27      6.09%     33.63% |          33      7.45%     41.08% |          27      6.09%     47.18% |          30      6.77%     53.95% |          30      6.77%     60.72% |          24      5.42%     66.14% |          26      5.87%     72.01% |          29      6.55%     78.56% |          34      7.67%     86.23% |          30      6.77%     93.00% |          31      7.00%    100.00%
system.ruby.L2Cache_Controller.MCT_I.WB_Data::total          443                      
system.ruby.L2Cache_Controller.MCT_I.Ack_all |           1      3.23%      3.23% |           1      3.23%      6.45% |           0      0.00%      6.45% |           2      6.45%     12.90% |           5     16.13%     29.03% |           2      6.45%     35.48% |           4     12.90%     48.39% |           4     12.90%     61.29% |           1      3.23%     64.52% |           1      3.23%     67.74% |           1      3.23%     70.97% |           3      9.68%     80.65% |           2      6.45%     87.10% |           1      3.23%     90.32% |           2      6.45%     96.77% |           1      3.23%    100.00%
system.ruby.L2Cache_Controller.MCT_I.Ack_all::total           31                      
system.ruby.L2Cache_Controller.I_I.Ack_all |         565      6.12%      6.12% |         597      6.46%     12.58% |         617      6.68%     19.26% |         558      6.04%     25.30% |         603      6.53%     31.83% |         631      6.83%     38.66% |         584      6.32%     44.98% |         574      6.21%     51.19% |         631      6.83%     58.02% |         473      5.12%     63.14% |         516      5.59%     68.73% |         577      6.25%     74.97% |         564      6.11%     81.08% |         568      6.15%     87.23% |         637      6.90%     94.12% |         543      5.88%    100.00%
system.ruby.L2Cache_Controller.I_I.Ack_all::total         9238                      
system.ruby.L2Cache_Controller.S_I.Ack   |           2      5.26%      5.26% |           2      5.26%     10.53% |           0      0.00%     10.53% |           4     10.53%     21.05% |           1      2.63%     23.68% |           5     13.16%     36.84% |           3      7.89%     44.74% |           3      7.89%     52.63% |           4     10.53%     63.16% |           3      7.89%     71.05% |           4     10.53%     81.58% |           1      2.63%     84.21% |           3      7.89%     92.11% |           2      5.26%     97.37% |           0      0.00%     97.37% |           1      2.63%    100.00%
system.ruby.L2Cache_Controller.S_I.Ack::total           38                      
system.ruby.L2Cache_Controller.S_I.Ack_all |           2      5.26%      5.26% |           2      5.26%     10.53% |           0      0.00%     10.53% |           4     10.53%     21.05% |           1      2.63%     23.68% |           5     13.16%     36.84% |           3      7.89%     44.74% |           3      7.89%     52.63% |           4     10.53%     63.16% |           3      7.89%     71.05% |           4     10.53%     81.58% |           1      2.63%     84.21% |           3      7.89%     92.11% |           2      5.26%     97.37% |           0      0.00%     97.37% |           1      2.63%    100.00%
system.ruby.L2Cache_Controller.S_I.Ack_all::total           38                      
system.ruby.L2Cache_Controller.ISS.Mem_Data |       29286      6.28%      6.28% |       28981      6.21%     12.49% |       28728      6.16%     18.64% |       29180      6.25%     24.89% |       28885      6.19%     31.08% |       29113      6.24%     37.32% |       29176      6.25%     43.57% |       29237      6.26%     49.84% |       29346      6.29%     56.13% |       29077      6.23%     62.36% |       29180      6.25%     68.61% |       29243      6.27%     74.88% |       29449      6.31%     81.19% |       29355      6.29%     87.48% |       29215      6.26%     93.74% |       29223      6.26%    100.00%
system.ruby.L2Cache_Controller.ISS.Mem_Data::total       466674                      
system.ruby.L2Cache_Controller.IS.Mem_Data |        1360      6.43%      6.43% |        1355      6.41%     12.84% |        1496      7.07%     19.91% |        1285      6.07%     25.98% |        1348      6.37%     32.35% |        1337      6.32%     38.68% |        1276      6.03%     44.71% |        1290      6.10%     50.81% |        1356      6.41%     57.22% |        1160      5.48%     62.70% |        1242      5.87%     68.57% |        1270      6.00%     74.58% |        1226      5.80%     80.37% |        1304      6.16%     86.54% |        1509      7.13%     93.67% |        1339      6.33%    100.00%
system.ruby.L2Cache_Controller.IS.Mem_Data::total        21153                      
system.ruby.L2Cache_Controller.IM.Mem_Data |        9877      6.22%      6.22% |        9970      6.28%     12.50% |        9995      6.29%     18.79% |        9962      6.27%     25.07% |        9959      6.27%     31.34% |        9940      6.26%     37.60% |        9949      6.27%     43.87% |        9950      6.27%     50.13% |        9898      6.23%     56.37% |        9869      6.22%     62.58% |        9905      6.24%     68.82% |        9878      6.22%     75.04% |        9884      6.23%     81.27% |        9912      6.24%     87.51% |        9917      6.25%     93.76% |        9913      6.24%    100.00%
system.ruby.L2Cache_Controller.IM.Mem_Data::total       158778                      
system.ruby.L2Cache_Controller.SS_MB.Exclusive_Unblock |          42      3.91%      3.91% |          42      3.91%      7.81% |          70      6.51%     14.33% |          56      5.21%     19.53% |          56      5.21%     24.74% |          84      7.81%     32.56% |          84      7.81%     40.37% |          84      7.81%     48.19% |          84      7.81%     56.00% |          84      7.81%     63.81% |          83      7.72%     71.53% |          82      7.63%     79.16% |          70      6.51%     85.67% |          70      6.51%     92.19% |          42      3.91%     96.09% |          42      3.91%    100.00%
system.ruby.L2Cache_Controller.SS_MB.Exclusive_Unblock::total         1075                      
system.ruby.L2Cache_Controller.MT_MB.Exclusive_Unblock |       50916      6.24%      6.24% |       50917      6.24%     12.48% |       50574      6.20%     18.68% |       51056      6.26%     24.93% |       50533      6.19%     31.12% |       50464      6.18%     37.31% |       50601      6.20%     43.51% |       51000      6.25%     49.76% |       51021      6.25%     56.01% |       50619      6.20%     62.21% |       50915      6.24%     68.45% |       51478      6.31%     74.76% |       52689      6.46%     81.22% |       51576      6.32%     87.54% |       51210      6.28%     93.81% |       50488      6.19%    100.00%
system.ruby.L2Cache_Controller.MT_MB.Exclusive_Unblock::total       816057                      
system.ruby.L2Cache_Controller.MT_IIB.WB_Data |          70      4.00%      4.00% |          70      4.00%      8.00% |          98      5.60%     13.60% |          96      5.49%     19.09% |          96      5.49%     24.57% |         136      7.77%     32.34% |         138      7.89%     40.23% |         136      7.77%     48.00% |         139      7.94%     55.94% |         140      8.00%     63.94% |         136      7.77%     71.71% |         135      7.71%     79.43% |         110      6.29%     85.71% |         111      6.34%     92.06% |          69      3.94%     96.00% |          70      4.00%    100.00%
system.ruby.L2Cache_Controller.MT_IIB.WB_Data::total         1750                      
system.ruby.L2Cache_Controller.MT_IIB.Unblock |           0      0.00%      0.00% |           0      0.00%      0.00% |           0      0.00%      0.00% |           2      9.09%      9.09% |           2      9.09%     18.18% |           4     18.18%     36.36% |           2      9.09%     45.45% |           4     18.18%     63.64% |           1      4.55%     68.18% |           0      0.00%     68.18% |           2      9.09%     77.27% |           1      4.55%     81.82% |           2      9.09%     90.91% |           1      4.55%     95.45% |           1      4.55%    100.00% |           0      0.00%    100.00%
system.ruby.L2Cache_Controller.MT_IIB.Unblock::total           22                      
system.ruby.L2Cache_Controller.MT_IB.WB_Data |           0      0.00%      0.00% |           0      0.00%      0.00% |           0      0.00%      0.00% |           2      9.09%      9.09% |           2      9.09%     18.18% |           4     18.18%     36.36% |           2      9.09%     45.45% |           4     18.18%     63.64% |           1      4.55%     68.18% |           0      0.00%     68.18% |           2      9.09%     77.27% |           1      4.55%     81.82% |           2      9.09%     90.91% |           1      4.55%     95.45% |           1      4.55%    100.00% |           0      0.00%    100.00%
system.ruby.L2Cache_Controller.MT_IB.WB_Data::total           22                      
system.ruby.L2Cache_Controller.MT_SB.Unblock |          70      4.00%      4.00% |          70      4.00%      8.00% |          98      5.60%     13.60% |          96      5.49%     19.09% |          96      5.49%     24.57% |         136      7.77%     32.34% |         138      7.89%     40.23% |         136      7.77%     48.00% |         139      7.94%     55.94% |         140      8.00%     63.94% |         136      7.77%     71.71% |         135      7.71%     79.43% |         110      6.29%     85.71% |         111      6.34%     92.06% |          69      3.94%     96.00% |          70      4.00%    100.00%
system.ruby.L2Cache_Controller.MT_SB.Unblock::total         1750                      

---------- End Simulation Statistics   ----------
