
---------- Begin Simulation Statistics ----------
sim_seconds                                  0.039484                       # Number of seconds simulated
sim_ticks                                 39483924000                       # Number of ticks simulated
final_tick                                39483924000                       # Number of ticks from beginning of simulation (restored from checkpoints and never reset)
sim_freq                                 1000000000000                       # Frequency of simulated ticks
host_inst_rate                                  90268                       # Simulator instruction rate (inst/s)
host_op_rate                                   155229                       # Simulator op (including micro ops) rate (op/s)
host_tick_rate                               26420039                       # Simulator tick rate (ticks/s)
host_mem_usage                                1156368                       # Number of bytes of host memory used
host_seconds                                  1494.47                       # Real time elapsed on the host
sim_insts                                   134903318                       # Number of instructions simulated
sim_ops                                     231985320                       # Number of ops (including micro ops) simulated
system.voltage_domain.voltage                       1                       # Voltage in Volts
system.clk_domain.clock                          1000                       # Clock period in ticks
system.mem_ctrls0.pwrStateResidencyTicks::UNDEFINED  39483924000                       # Cumulative time (in ticks) in various power states
system.mem_ctrls0.bytes_read::ruby.dir_cntrl0      3484544                       # Number of bytes read from this memory
system.mem_ctrls0.bytes_read::total           3484544                       # Number of bytes read from this memory
system.mem_ctrls0.num_reads::ruby.dir_cntrl0        54446                       # Number of read requests responded to by this memory
system.mem_ctrls0.num_reads::total              54446                       # Number of read requests responded to by this memory
system.mem_ctrls0.bw_read::ruby.dir_cntrl0     88252221                       # Total read bandwidth from this memory (bytes/s)
system.mem_ctrls0.bw_read::total             88252221                       # Total read bandwidth from this memory (bytes/s)
system.mem_ctrls0.bw_total::ruby.dir_cntrl0     88252221                       # Total bandwidth to/from this memory (bytes/s)
system.mem_ctrls0.bw_total::total            88252221                       # Total bandwidth to/from this memory (bytes/s)
system.mem_ctrls0.readReqs                      54446                       # Number of read requests accepted
system.mem_ctrls0.avgNetLat                      0.00                       # Average network latency to DRAM controller
system.mem_ctrls0.writeReqs                         0                       # Number of write requests accepted
system.mem_ctrls0.readBursts                    54446                       # Number of DRAM read bursts, including those serviced by the write queue
system.mem_ctrls0.writeBursts                       0                       # Number of DRAM write bursts, including those merged in the write queue
system.mem_ctrls0.bytesReadDRAM               3484544                       # Total number of bytes read from DRAM
system.mem_ctrls0.bytesReadWrQ                      0                       # Total number of bytes read from write queue
system.mem_ctrls0.bytesWritten                      0                       # Total number of bytes written to DRAM
system.mem_ctrls0.bytesReadSys                3484544                       # Total read bytes from the system interface side
system.mem_ctrls0.bytesWrittenSys                   0                       # Total written bytes from the system interface side
system.mem_ctrls0.servicedByWrQ                     0                       # Number of DRAM read bursts serviced by the write queue
system.mem_ctrls0.mergedWrBursts                    0                       # Number of DRAM write bursts merged with an existing one
system.mem_ctrls0.neitherReadNorWriteReqs            0                       # Number of requests that are neither read nor write
system.mem_ctrls0.perBankRdBursts::0             4351                       # Per bank write bursts
system.mem_ctrls0.perBankRdBursts::1             3793                       # Per bank write bursts
system.mem_ctrls0.perBankRdBursts::2             3476                       # Per bank write bursts
system.mem_ctrls0.perBankRdBursts::3             3769                       # Per bank write bursts
system.mem_ctrls0.perBankRdBursts::4             3274                       # Per bank write bursts
system.mem_ctrls0.perBankRdBursts::5             3245                       # Per bank write bursts
system.mem_ctrls0.perBankRdBursts::6             3325                       # Per bank write bursts
system.mem_ctrls0.perBankRdBursts::7             3229                       # Per bank write bursts
system.mem_ctrls0.perBankRdBursts::8             2923                       # Per bank write bursts
system.mem_ctrls0.perBankRdBursts::9             2778                       # Per bank write bursts
system.mem_ctrls0.perBankRdBursts::10            2625                       # Per bank write bursts
system.mem_ctrls0.perBankRdBursts::11            2707                       # Per bank write bursts
system.mem_ctrls0.perBankRdBursts::12            3190                       # Per bank write bursts
system.mem_ctrls0.perBankRdBursts::13            3652                       # Per bank write bursts
system.mem_ctrls0.perBankRdBursts::14            3975                       # Per bank write bursts
system.mem_ctrls0.perBankRdBursts::15            4134                       # Per bank write bursts
system.mem_ctrls0.perBankWrBursts::0                0                       # Per bank write bursts
system.mem_ctrls0.perBankWrBursts::1                0                       # Per bank write bursts
system.mem_ctrls0.perBankWrBursts::2                0                       # Per bank write bursts
system.mem_ctrls0.perBankWrBursts::3                0                       # Per bank write bursts
system.mem_ctrls0.perBankWrBursts::4                0                       # Per bank write bursts
system.mem_ctrls0.perBankWrBursts::5                0                       # Per bank write bursts
system.mem_ctrls0.perBankWrBursts::6                0                       # Per bank write bursts
system.mem_ctrls0.perBankWrBursts::7                0                       # Per bank write bursts
system.mem_ctrls0.perBankWrBursts::8                0                       # Per bank write bursts
system.mem_ctrls0.perBankWrBursts::9                0                       # Per bank write bursts
system.mem_ctrls0.perBankWrBursts::10               0                       # Per bank write bursts
system.mem_ctrls0.perBankWrBursts::11               0                       # Per bank write bursts
system.mem_ctrls0.perBankWrBursts::12               0                       # Per bank write bursts
system.mem_ctrls0.perBankWrBursts::13               0                       # Per bank write bursts
system.mem_ctrls0.perBankWrBursts::14               0                       # Per bank write bursts
system.mem_ctrls0.perBankWrBursts::15               0                       # Per bank write bursts
system.mem_ctrls0.numRdRetry                        0                       # Number of times read queue was full causing retry
system.mem_ctrls0.numWrRetry                        0                       # Number of times write queue was full causing retry
system.mem_ctrls0.totGap                  39482891500                       # Total gap between requests
system.mem_ctrls0.readPktSize::0                    0                       # Read request sizes (log2)
system.mem_ctrls0.readPktSize::1                    0                       # Read request sizes (log2)
system.mem_ctrls0.readPktSize::2                    0                       # Read request sizes (log2)
system.mem_ctrls0.readPktSize::3                    0                       # Read request sizes (log2)
system.mem_ctrls0.readPktSize::4                    0                       # Read request sizes (log2)
system.mem_ctrls0.readPktSize::5                    0                       # Read request sizes (log2)
system.mem_ctrls0.readPktSize::6                54446                       # Read request sizes (log2)
system.mem_ctrls0.writePktSize::0                   0                       # Write request sizes (log2)
system.mem_ctrls0.writePktSize::1                   0                       # Write request sizes (log2)
system.mem_ctrls0.writePktSize::2                   0                       # Write request sizes (log2)
system.mem_ctrls0.writePktSize::3                   0                       # Write request sizes (log2)
system.mem_ctrls0.writePktSize::4                   0                       # Write request sizes (log2)
system.mem_ctrls0.writePktSize::5                   0                       # Write request sizes (log2)
system.mem_ctrls0.writePktSize::6                   0                       # Write request sizes (log2)
system.mem_ctrls0.rdQLenPdf::0                  39933                       # What read queue length does an incoming req see
system.mem_ctrls0.rdQLenPdf::1                   9391                       # What read queue length does an incoming req see
system.mem_ctrls0.rdQLenPdf::2                   3312                       # What read queue length does an incoming req see
system.mem_ctrls0.rdQLenPdf::3                   1159                       # What read queue length does an incoming req see
system.mem_ctrls0.rdQLenPdf::4                    438                       # What read queue length does an incoming req see
system.mem_ctrls0.rdQLenPdf::5                    152                       # What read queue length does an incoming req see
system.mem_ctrls0.rdQLenPdf::6                     42                       # What read queue length does an incoming req see
system.mem_ctrls0.rdQLenPdf::7                     11                       # What read queue length does an incoming req see
system.mem_ctrls0.rdQLenPdf::8                      5                       # What read queue length does an incoming req see
system.mem_ctrls0.rdQLenPdf::9                      1                       # What read queue length does an incoming req see
system.mem_ctrls0.rdQLenPdf::10                     2                       # What read queue length does an incoming req see
system.mem_ctrls0.rdQLenPdf::11                     0                       # What read queue length does an incoming req see
system.mem_ctrls0.rdQLenPdf::12                     0                       # What read queue length does an incoming req see
system.mem_ctrls0.rdQLenPdf::13                     0                       # What read queue length does an incoming req see
system.mem_ctrls0.rdQLenPdf::14                     0                       # What read queue length does an incoming req see
system.mem_ctrls0.rdQLenPdf::15                     0                       # What read queue length does an incoming req see
system.mem_ctrls0.rdQLenPdf::16                     0                       # What read queue length does an incoming req see
system.mem_ctrls0.rdQLenPdf::17                     0                       # What read queue length does an incoming req see
system.mem_ctrls0.rdQLenPdf::18                     0                       # What read queue length does an incoming req see
system.mem_ctrls0.rdQLenPdf::19                     0                       # What read queue length does an incoming req see
system.mem_ctrls0.rdQLenPdf::20                     0                       # What read queue length does an incoming req see
system.mem_ctrls0.rdQLenPdf::21                     0                       # What read queue length does an incoming req see
system.mem_ctrls0.rdQLenPdf::22                     0                       # What read queue length does an incoming req see
system.mem_ctrls0.rdQLenPdf::23                     0                       # What read queue length does an incoming req see
system.mem_ctrls0.rdQLenPdf::24                     0                       # What read queue length does an incoming req see
system.mem_ctrls0.rdQLenPdf::25                     0                       # What read queue length does an incoming req see
system.mem_ctrls0.rdQLenPdf::26                     0                       # What read queue length does an incoming req see
system.mem_ctrls0.rdQLenPdf::27                     0                       # What read queue length does an incoming req see
system.mem_ctrls0.rdQLenPdf::28                     0                       # What read queue length does an incoming req see
system.mem_ctrls0.rdQLenPdf::29                     0                       # What read queue length does an incoming req see
system.mem_ctrls0.rdQLenPdf::30                     0                       # What read queue length does an incoming req see
system.mem_ctrls0.rdQLenPdf::31                     0                       # What read queue length does an incoming req see
system.mem_ctrls0.wrQLenPdf::0                      0                       # What write queue length does an incoming req see
system.mem_ctrls0.wrQLenPdf::1                      0                       # What write queue length does an incoming req see
system.mem_ctrls0.wrQLenPdf::2                      0                       # What write queue length does an incoming req see
system.mem_ctrls0.wrQLenPdf::3                      0                       # What write queue length does an incoming req see
system.mem_ctrls0.wrQLenPdf::4                      0                       # What write queue length does an incoming req see
system.mem_ctrls0.wrQLenPdf::5                      0                       # What write queue length does an incoming req see
system.mem_ctrls0.wrQLenPdf::6                      0                       # What write queue length does an incoming req see
system.mem_ctrls0.wrQLenPdf::7                      0                       # What write queue length does an incoming req see
system.mem_ctrls0.wrQLenPdf::8                      0                       # What write queue length does an incoming req see
system.mem_ctrls0.wrQLenPdf::9                      0                       # What write queue length does an incoming req see
system.mem_ctrls0.wrQLenPdf::10                     0                       # What write queue length does an incoming req see
system.mem_ctrls0.wrQLenPdf::11                     0                       # What write queue length does an incoming req see
system.mem_ctrls0.wrQLenPdf::12                     0                       # What write queue length does an incoming req see
system.mem_ctrls0.wrQLenPdf::13                     0                       # What write queue length does an incoming req see
system.mem_ctrls0.wrQLenPdf::14                     0                       # What write queue length does an incoming req see
system.mem_ctrls0.wrQLenPdf::15                     0                       # What write queue length does an incoming req see
system.mem_ctrls0.wrQLenPdf::16                     0                       # What write queue length does an incoming req see
system.mem_ctrls0.wrQLenPdf::17                     0                       # What write queue length does an incoming req see
system.mem_ctrls0.wrQLenPdf::18                     0                       # What write queue length does an incoming req see
system.mem_ctrls0.wrQLenPdf::19                     0                       # What write queue length does an incoming req see
system.mem_ctrls0.wrQLenPdf::20                     0                       # What write queue length does an incoming req see
system.mem_ctrls0.wrQLenPdf::21                     0                       # What write queue length does an incoming req see
system.mem_ctrls0.wrQLenPdf::22                     0                       # What write queue length does an incoming req see
system.mem_ctrls0.wrQLenPdf::23                     0                       # What write queue length does an incoming req see
system.mem_ctrls0.wrQLenPdf::24                     0                       # What write queue length does an incoming req see
system.mem_ctrls0.wrQLenPdf::25                     0                       # What write queue length does an incoming req see
system.mem_ctrls0.wrQLenPdf::26                     0                       # What write queue length does an incoming req see
system.mem_ctrls0.wrQLenPdf::27                     0                       # What write queue length does an incoming req see
system.mem_ctrls0.wrQLenPdf::28                     0                       # What write queue length does an incoming req see
system.mem_ctrls0.wrQLenPdf::29                     0                       # What write queue length does an incoming req see
system.mem_ctrls0.wrQLenPdf::30                     0                       # What write queue length does an incoming req see
system.mem_ctrls0.wrQLenPdf::31                     0                       # What write queue length does an incoming req see
system.mem_ctrls0.wrQLenPdf::32                     0                       # What write queue length does an incoming req see
system.mem_ctrls0.wrQLenPdf::33                     0                       # What write queue length does an incoming req see
system.mem_ctrls0.wrQLenPdf::34                     0                       # What write queue length does an incoming req see
system.mem_ctrls0.wrQLenPdf::35                     0                       # What write queue length does an incoming req see
system.mem_ctrls0.wrQLenPdf::36                     0                       # What write queue length does an incoming req see
system.mem_ctrls0.wrQLenPdf::37                     0                       # What write queue length does an incoming req see
system.mem_ctrls0.wrQLenPdf::38                     0                       # What write queue length does an incoming req see
system.mem_ctrls0.wrQLenPdf::39                     0                       # What write queue length does an incoming req see
system.mem_ctrls0.wrQLenPdf::40                     0                       # What write queue length does an incoming req see
system.mem_ctrls0.wrQLenPdf::41                     0                       # What write queue length does an incoming req see
system.mem_ctrls0.wrQLenPdf::42                     0                       # What write queue length does an incoming req see
system.mem_ctrls0.wrQLenPdf::43                     0                       # What write queue length does an incoming req see
system.mem_ctrls0.wrQLenPdf::44                     0                       # What write queue length does an incoming req see
system.mem_ctrls0.wrQLenPdf::45                     0                       # What write queue length does an incoming req see
system.mem_ctrls0.wrQLenPdf::46                     0                       # What write queue length does an incoming req see
system.mem_ctrls0.wrQLenPdf::47                     0                       # What write queue length does an incoming req see
system.mem_ctrls0.wrQLenPdf::48                     0                       # What write queue length does an incoming req see
system.mem_ctrls0.wrQLenPdf::49                     0                       # What write queue length does an incoming req see
system.mem_ctrls0.wrQLenPdf::50                     0                       # What write queue length does an incoming req see
system.mem_ctrls0.wrQLenPdf::51                     0                       # What write queue length does an incoming req see
system.mem_ctrls0.wrQLenPdf::52                     0                       # What write queue length does an incoming req see
system.mem_ctrls0.wrQLenPdf::53                     0                       # What write queue length does an incoming req see
system.mem_ctrls0.wrQLenPdf::54                     0                       # What write queue length does an incoming req see
system.mem_ctrls0.wrQLenPdf::55                     0                       # What write queue length does an incoming req see
system.mem_ctrls0.wrQLenPdf::56                     0                       # What write queue length does an incoming req see
system.mem_ctrls0.wrQLenPdf::57                     0                       # What write queue length does an incoming req see
system.mem_ctrls0.wrQLenPdf::58                     0                       # What write queue length does an incoming req see
system.mem_ctrls0.wrQLenPdf::59                     0                       # What write queue length does an incoming req see
system.mem_ctrls0.wrQLenPdf::60                     0                       # What write queue length does an incoming req see
system.mem_ctrls0.wrQLenPdf::61                     0                       # What write queue length does an incoming req see
system.mem_ctrls0.wrQLenPdf::62                     0                       # What write queue length does an incoming req see
system.mem_ctrls0.wrQLenPdf::63                     0                       # What write queue length does an incoming req see
system.mem_ctrls0.bytesPerActivate::samples        33374                       # Bytes accessed per row activation
system.mem_ctrls0.bytesPerActivate::mean   104.389764                       # Bytes accessed per row activation
system.mem_ctrls0.bytesPerActivate::gmean    80.180356                       # Bytes accessed per row activation
system.mem_ctrls0.bytesPerActivate::stdev   117.851865                       # Bytes accessed per row activation
system.mem_ctrls0.bytesPerActivate::0-127        28011     83.93%     83.93% # Bytes accessed per row activation
system.mem_ctrls0.bytesPerActivate::128-255         2600      7.79%     91.72% # Bytes accessed per row activation
system.mem_ctrls0.bytesPerActivate::256-383          373      1.12%     92.84% # Bytes accessed per row activation
system.mem_ctrls0.bytesPerActivate::384-511          292      0.87%     93.71% # Bytes accessed per row activation
system.mem_ctrls0.bytesPerActivate::512-639         2030      6.08%     99.80% # Bytes accessed per row activation
system.mem_ctrls0.bytesPerActivate::640-767           45      0.13%     99.93% # Bytes accessed per row activation
system.mem_ctrls0.bytesPerActivate::768-895           12      0.04%     99.97% # Bytes accessed per row activation
system.mem_ctrls0.bytesPerActivate::896-1023            2      0.01%     99.97% # Bytes accessed per row activation
system.mem_ctrls0.bytesPerActivate::1024-1151            9      0.03%    100.00% # Bytes accessed per row activation
system.mem_ctrls0.bytesPerActivate::total        33374                       # Bytes accessed per row activation
system.mem_ctrls0.totQLat                  1383021250                       # Total ticks spent queuing
system.mem_ctrls0.totMemAccLat             2403883750                       # Total ticks spent from burst creation until serviced by the DRAM
system.mem_ctrls0.totBusLat                 272230000                       # Total ticks spent in databus transfers
system.mem_ctrls0.avgQLat                    25401.71                       # Average queueing delay per DRAM burst
system.mem_ctrls0.avgBusLat                   5000.00                       # Average bus latency per DRAM burst
system.mem_ctrls0.avgMemAccLat               44151.71                       # Average memory access latency per DRAM burst
system.mem_ctrls0.avgRdBW                       88.25                       # Average DRAM read bandwidth in MiByte/s
system.mem_ctrls0.avgWrBW                        0.00                       # Average achieved write bandwidth in MiByte/s
system.mem_ctrls0.avgRdBWSys                    88.25                       # Average system read bandwidth in MiByte/s
system.mem_ctrls0.avgWrBWSys                     0.00                       # Average system write bandwidth in MiByte/s
system.mem_ctrls0.peakBW                     12800.00                       # Theoretical peak bandwidth in MiByte/s
system.mem_ctrls0.busUtil                        0.69                       # Data bus utilization in percentage
system.mem_ctrls0.busUtilRead                    0.69                       # Data bus utilization in percentage for reads
system.mem_ctrls0.busUtilWrite                   0.00                       # Data bus utilization in percentage for writes
system.mem_ctrls0.avgRdQLen                      1.06                       # Average read queue length when enqueuing
system.mem_ctrls0.avgWrQLen                      0.00                       # Average write queue length when enqueuing
system.mem_ctrls0.readRowHits                   21068                       # Number of row buffer hits during reads
system.mem_ctrls0.writeRowHits                      0                       # Number of row buffer hits during writes
system.mem_ctrls0.readRowHitRate                38.70                       # Row buffer hit rate for reads
system.mem_ctrls0.writeRowHitRate                 nan                       # Row buffer hit rate for writes
system.mem_ctrls0.avgGap                    725175.25                       # Average gap between requests
system.mem_ctrls0.pageHitRate                   38.70                       # Row buffer hit rate, read and write combined
system.mem_ctrls0_0.actEnergy               110884200                       # Energy for activate commands per rank (pJ)
system.mem_ctrls0_0.preEnergy                58928760                       # Energy for precharge commands per rank (pJ)
system.mem_ctrls0_0.readEnergy              203218680                       # Energy for read commands per rank (pJ)
system.mem_ctrls0_0.writeEnergy                     0                       # Energy for write commands per rank (pJ)
system.mem_ctrls0_0.refreshEnergy        1389701040.000000                       # Energy for refresh commands per rank (pJ)
system.mem_ctrls0_0.actBackEnergy           693225450                       # Energy for active background per rank (pJ)
system.mem_ctrls0_0.preBackEnergy            32145600                       # Energy for precharge background per rank (pJ)
system.mem_ctrls0_0.actPowerDownEnergy     6781676460                       # Energy for active power-down per rank (pJ)
system.mem_ctrls0_0.prePowerDownEnergy      360954720                       # Energy for precharge power-down per rank (pJ)
system.mem_ctrls0_0.selfRefreshEnergy      5311205880                       # Energy for self refresh per rank (pJ)
system.mem_ctrls0_0.totalEnergy           14941940790                       # Total energy per rank (pJ)
system.mem_ctrls0_0.averagePower           378.430989                       # Core power per rank (mW)
system.mem_ctrls0_0.totalIdleTime         37875956000                       # Total Idle time Per DRAM Rank
system.mem_ctrls0_0.memoryStateTime::IDLE     20271000                       # Time in different power states
system.mem_ctrls0_0.memoryStateTime::REF    588022000                       # Time in different power states
system.mem_ctrls0_0.memoryStateTime::SREF  22067893250                       # Time in different power states
system.mem_ctrls0_0.memoryStateTime::PRE_PDN    939724750                       # Time in different power states
system.mem_ctrls0_0.memoryStateTime::ACT    995655500                       # Time in different power states
system.mem_ctrls0_0.memoryStateTime::ACT_PDN  14872357500                       # Time in different power states
system.mem_ctrls0_1.actEnergy               127434720                       # Energy for activate commands per rank (pJ)
system.mem_ctrls0_1.preEnergy                67725570                       # Energy for precharge commands per rank (pJ)
system.mem_ctrls0_1.readEnergy              185525760                       # Energy for read commands per rank (pJ)
system.mem_ctrls0_1.writeEnergy                     0                       # Energy for write commands per rank (pJ)
system.mem_ctrls0_1.refreshEnergy        1001248560.000000                       # Energy for refresh commands per rank (pJ)
system.mem_ctrls0_1.actBackEnergy           600180360                       # Energy for active background per rank (pJ)
system.mem_ctrls0_1.preBackEnergy            24354240                       # Energy for precharge background per rank (pJ)
system.mem_ctrls0_1.actPowerDownEnergy     4657786350                       # Energy for active power-down per rank (pJ)
system.mem_ctrls0_1.prePowerDownEnergy      327941280                       # Energy for precharge power-down per rank (pJ)
system.mem_ctrls0_1.selfRefreshEnergy      6506830320                       # Energy for self refresh per rank (pJ)
system.mem_ctrls0_1.totalEnergy           13499027160                       # Total energy per rank (pJ)
system.mem_ctrls0_1.averagePower           341.886658                       # Core power per rank (mW)
system.mem_ctrls0_1.totalIdleTime         38103808000                       # Total Idle time Per DRAM Rank
system.mem_ctrls0_1.memoryStateTime::IDLE     17854500                       # Time in different power states
system.mem_ctrls0_1.memoryStateTime::REF    423738000                       # Time in different power states
system.mem_ctrls0_1.memoryStateTime::SREF  27035857000                       # Time in different power states
system.mem_ctrls0_1.memoryStateTime::PRE_PDN    853957250                       # Time in different power states
system.mem_ctrls0_1.memoryStateTime::ACT    937613250                       # Time in different power states
system.mem_ctrls0_1.memoryStateTime::ACT_PDN  10214904000                       # Time in different power states
system.mem_ctrls1.pwrStateResidencyTicks::UNDEFINED  39483924000                       # Cumulative time (in ticks) in various power states
system.mem_ctrls1.bytes_read::ruby.dir_cntrl1      3463936                       # Number of bytes read from this memory
system.mem_ctrls1.bytes_read::total           3463936                       # Number of bytes read from this memory
system.mem_ctrls1.num_reads::ruby.dir_cntrl1        54124                       # Number of read requests responded to by this memory
system.mem_ctrls1.num_reads::total              54124                       # Number of read requests responded to by this memory
system.mem_ctrls1.bw_read::ruby.dir_cntrl1     87730287                       # Total read bandwidth from this memory (bytes/s)
system.mem_ctrls1.bw_read::total             87730287                       # Total read bandwidth from this memory (bytes/s)
system.mem_ctrls1.bw_total::ruby.dir_cntrl1     87730287                       # Total bandwidth to/from this memory (bytes/s)
system.mem_ctrls1.bw_total::total            87730287                       # Total bandwidth to/from this memory (bytes/s)
system.mem_ctrls1.readReqs                      54124                       # Number of read requests accepted
system.mem_ctrls1.avgNetLat                      0.00                       # Average network latency to DRAM controller
system.mem_ctrls1.writeReqs                         0                       # Number of write requests accepted
system.mem_ctrls1.readBursts                    54124                       # Number of DRAM read bursts, including those serviced by the write queue
system.mem_ctrls1.writeBursts                       0                       # Number of DRAM write bursts, including those merged in the write queue
system.mem_ctrls1.bytesReadDRAM               3463936                       # Total number of bytes read from DRAM
system.mem_ctrls1.bytesReadWrQ                      0                       # Total number of bytes read from write queue
system.mem_ctrls1.bytesWritten                      0                       # Total number of bytes written to DRAM
system.mem_ctrls1.bytesReadSys                3463936                       # Total read bytes from the system interface side
system.mem_ctrls1.bytesWrittenSys                   0                       # Total written bytes from the system interface side
system.mem_ctrls1.servicedByWrQ                     0                       # Number of DRAM read bursts serviced by the write queue
system.mem_ctrls1.mergedWrBursts                    0                       # Number of DRAM write bursts merged with an existing one
system.mem_ctrls1.neitherReadNorWriteReqs            0                       # Number of requests that are neither read nor write
system.mem_ctrls1.perBankRdBursts::0             4316                       # Per bank write bursts
system.mem_ctrls1.perBankRdBursts::1             3787                       # Per bank write bursts
system.mem_ctrls1.perBankRdBursts::2             3418                       # Per bank write bursts
system.mem_ctrls1.perBankRdBursts::3             3726                       # Per bank write bursts
system.mem_ctrls1.perBankRdBursts::4             3230                       # Per bank write bursts
system.mem_ctrls1.perBankRdBursts::5             3231                       # Per bank write bursts
system.mem_ctrls1.perBankRdBursts::6             3279                       # Per bank write bursts
system.mem_ctrls1.perBankRdBursts::7             3216                       # Per bank write bursts
system.mem_ctrls1.perBankRdBursts::8             2917                       # Per bank write bursts
system.mem_ctrls1.perBankRdBursts::9             2791                       # Per bank write bursts
system.mem_ctrls1.perBankRdBursts::10            2606                       # Per bank write bursts
system.mem_ctrls1.perBankRdBursts::11            2689                       # Per bank write bursts
system.mem_ctrls1.perBankRdBursts::12            3173                       # Per bank write bursts
system.mem_ctrls1.perBankRdBursts::13            3635                       # Per bank write bursts
system.mem_ctrls1.perBankRdBursts::14            3976                       # Per bank write bursts
system.mem_ctrls1.perBankRdBursts::15            4134                       # Per bank write bursts
system.mem_ctrls1.perBankWrBursts::0                0                       # Per bank write bursts
system.mem_ctrls1.perBankWrBursts::1                0                       # Per bank write bursts
system.mem_ctrls1.perBankWrBursts::2                0                       # Per bank write bursts
system.mem_ctrls1.perBankWrBursts::3                0                       # Per bank write bursts
system.mem_ctrls1.perBankWrBursts::4                0                       # Per bank write bursts
system.mem_ctrls1.perBankWrBursts::5                0                       # Per bank write bursts
system.mem_ctrls1.perBankWrBursts::6                0                       # Per bank write bursts
system.mem_ctrls1.perBankWrBursts::7                0                       # Per bank write bursts
system.mem_ctrls1.perBankWrBursts::8                0                       # Per bank write bursts
system.mem_ctrls1.perBankWrBursts::9                0                       # Per bank write bursts
system.mem_ctrls1.perBankWrBursts::10               0                       # Per bank write bursts
system.mem_ctrls1.perBankWrBursts::11               0                       # Per bank write bursts
system.mem_ctrls1.perBankWrBursts::12               0                       # Per bank write bursts
system.mem_ctrls1.perBankWrBursts::13               0                       # Per bank write bursts
system.mem_ctrls1.perBankWrBursts::14               0                       # Per bank write bursts
system.mem_ctrls1.perBankWrBursts::15               0                       # Per bank write bursts
system.mem_ctrls1.numRdRetry                        0                       # Number of times read queue was full causing retry
system.mem_ctrls1.numWrRetry                        0                       # Number of times write queue was full causing retry
system.mem_ctrls1.totGap                  39483340000                       # Total gap between requests
system.mem_ctrls1.readPktSize::0                    0                       # Read request sizes (log2)
system.mem_ctrls1.readPktSize::1                    0                       # Read request sizes (log2)
system.mem_ctrls1.readPktSize::2                    0                       # Read request sizes (log2)
system.mem_ctrls1.readPktSize::3                    0                       # Read request sizes (log2)
system.mem_ctrls1.readPktSize::4                    0                       # Read request sizes (log2)
system.mem_ctrls1.readPktSize::5                    0                       # Read request sizes (log2)
system.mem_ctrls1.readPktSize::6                54124                       # Read request sizes (log2)
system.mem_ctrls1.writePktSize::0                   0                       # Write request sizes (log2)
system.mem_ctrls1.writePktSize::1                   0                       # Write request sizes (log2)
system.mem_ctrls1.writePktSize::2                   0                       # Write request sizes (log2)
system.mem_ctrls1.writePktSize::3                   0                       # Write request sizes (log2)
system.mem_ctrls1.writePktSize::4                   0                       # Write request sizes (log2)
system.mem_ctrls1.writePktSize::5                   0                       # Write request sizes (log2)
system.mem_ctrls1.writePktSize::6                   0                       # Write request sizes (log2)
system.mem_ctrls1.rdQLenPdf::0                  39884                       # What read queue length does an incoming req see
system.mem_ctrls1.rdQLenPdf::1                   9165                       # What read queue length does an incoming req see
system.mem_ctrls1.rdQLenPdf::2                   3245                       # What read queue length does an incoming req see
system.mem_ctrls1.rdQLenPdf::3                   1181                       # What read queue length does an incoming req see
system.mem_ctrls1.rdQLenPdf::4                    415                       # What read queue length does an incoming req see
system.mem_ctrls1.rdQLenPdf::5                    131                       # What read queue length does an incoming req see
system.mem_ctrls1.rdQLenPdf::6                     50                       # What read queue length does an incoming req see
system.mem_ctrls1.rdQLenPdf::7                     24                       # What read queue length does an incoming req see
system.mem_ctrls1.rdQLenPdf::8                     11                       # What read queue length does an incoming req see
system.mem_ctrls1.rdQLenPdf::9                      9                       # What read queue length does an incoming req see
system.mem_ctrls1.rdQLenPdf::10                     6                       # What read queue length does an incoming req see
system.mem_ctrls1.rdQLenPdf::11                     3                       # What read queue length does an incoming req see
system.mem_ctrls1.rdQLenPdf::12                     0                       # What read queue length does an incoming req see
system.mem_ctrls1.rdQLenPdf::13                     0                       # What read queue length does an incoming req see
system.mem_ctrls1.rdQLenPdf::14                     0                       # What read queue length does an incoming req see
system.mem_ctrls1.rdQLenPdf::15                     0                       # What read queue length does an incoming req see
system.mem_ctrls1.rdQLenPdf::16                     0                       # What read queue length does an incoming req see
system.mem_ctrls1.rdQLenPdf::17                     0                       # What read queue length does an incoming req see
system.mem_ctrls1.rdQLenPdf::18                     0                       # What read queue length does an incoming req see
system.mem_ctrls1.rdQLenPdf::19                     0                       # What read queue length does an incoming req see
system.mem_ctrls1.rdQLenPdf::20                     0                       # What read queue length does an incoming req see
system.mem_ctrls1.rdQLenPdf::21                     0                       # What read queue length does an incoming req see
system.mem_ctrls1.rdQLenPdf::22                     0                       # What read queue length does an incoming req see
system.mem_ctrls1.rdQLenPdf::23                     0                       # What read queue length does an incoming req see
system.mem_ctrls1.rdQLenPdf::24                     0                       # What read queue length does an incoming req see
system.mem_ctrls1.rdQLenPdf::25                     0                       # What read queue length does an incoming req see
system.mem_ctrls1.rdQLenPdf::26                     0                       # What read queue length does an incoming req see
system.mem_ctrls1.rdQLenPdf::27                     0                       # What read queue length does an incoming req see
system.mem_ctrls1.rdQLenPdf::28                     0                       # What read queue length does an incoming req see
system.mem_ctrls1.rdQLenPdf::29                     0                       # What read queue length does an incoming req see
system.mem_ctrls1.rdQLenPdf::30                     0                       # What read queue length does an incoming req see
system.mem_ctrls1.rdQLenPdf::31                     0                       # What read queue length does an incoming req see
system.mem_ctrls1.wrQLenPdf::0                      0                       # What write queue length does an incoming req see
system.mem_ctrls1.wrQLenPdf::1                      0                       # What write queue length does an incoming req see
system.mem_ctrls1.wrQLenPdf::2                      0                       # What write queue length does an incoming req see
system.mem_ctrls1.wrQLenPdf::3                      0                       # What write queue length does an incoming req see
system.mem_ctrls1.wrQLenPdf::4                      0                       # What write queue length does an incoming req see
system.mem_ctrls1.wrQLenPdf::5                      0                       # What write queue length does an incoming req see
system.mem_ctrls1.wrQLenPdf::6                      0                       # What write queue length does an incoming req see
system.mem_ctrls1.wrQLenPdf::7                      0                       # What write queue length does an incoming req see
system.mem_ctrls1.wrQLenPdf::8                      0                       # What write queue length does an incoming req see
system.mem_ctrls1.wrQLenPdf::9                      0                       # What write queue length does an incoming req see
system.mem_ctrls1.wrQLenPdf::10                     0                       # What write queue length does an incoming req see
system.mem_ctrls1.wrQLenPdf::11                     0                       # What write queue length does an incoming req see
system.mem_ctrls1.wrQLenPdf::12                     0                       # What write queue length does an incoming req see
system.mem_ctrls1.wrQLenPdf::13                     0                       # What write queue length does an incoming req see
system.mem_ctrls1.wrQLenPdf::14                     0                       # What write queue length does an incoming req see
system.mem_ctrls1.wrQLenPdf::15                     0                       # What write queue length does an incoming req see
system.mem_ctrls1.wrQLenPdf::16                     0                       # What write queue length does an incoming req see
system.mem_ctrls1.wrQLenPdf::17                     0                       # What write queue length does an incoming req see
system.mem_ctrls1.wrQLenPdf::18                     0                       # What write queue length does an incoming req see
system.mem_ctrls1.wrQLenPdf::19                     0                       # What write queue length does an incoming req see
system.mem_ctrls1.wrQLenPdf::20                     0                       # What write queue length does an incoming req see
system.mem_ctrls1.wrQLenPdf::21                     0                       # What write queue length does an incoming req see
system.mem_ctrls1.wrQLenPdf::22                     0                       # What write queue length does an incoming req see
system.mem_ctrls1.wrQLenPdf::23                     0                       # What write queue length does an incoming req see
system.mem_ctrls1.wrQLenPdf::24                     0                       # What write queue length does an incoming req see
system.mem_ctrls1.wrQLenPdf::25                     0                       # What write queue length does an incoming req see
system.mem_ctrls1.wrQLenPdf::26                     0                       # What write queue length does an incoming req see
system.mem_ctrls1.wrQLenPdf::27                     0                       # What write queue length does an incoming req see
system.mem_ctrls1.wrQLenPdf::28                     0                       # What write queue length does an incoming req see
system.mem_ctrls1.wrQLenPdf::29                     0                       # What write queue length does an incoming req see
system.mem_ctrls1.wrQLenPdf::30                     0                       # What write queue length does an incoming req see
system.mem_ctrls1.wrQLenPdf::31                     0                       # What write queue length does an incoming req see
system.mem_ctrls1.wrQLenPdf::32                     0                       # What write queue length does an incoming req see
system.mem_ctrls1.wrQLenPdf::33                     0                       # What write queue length does an incoming req see
system.mem_ctrls1.wrQLenPdf::34                     0                       # What write queue length does an incoming req see
system.mem_ctrls1.wrQLenPdf::35                     0                       # What write queue length does an incoming req see
system.mem_ctrls1.wrQLenPdf::36                     0                       # What write queue length does an incoming req see
system.mem_ctrls1.wrQLenPdf::37                     0                       # What write queue length does an incoming req see
system.mem_ctrls1.wrQLenPdf::38                     0                       # What write queue length does an incoming req see
system.mem_ctrls1.wrQLenPdf::39                     0                       # What write queue length does an incoming req see
system.mem_ctrls1.wrQLenPdf::40                     0                       # What write queue length does an incoming req see
system.mem_ctrls1.wrQLenPdf::41                     0                       # What write queue length does an incoming req see
system.mem_ctrls1.wrQLenPdf::42                     0                       # What write queue length does an incoming req see
system.mem_ctrls1.wrQLenPdf::43                     0                       # What write queue length does an incoming req see
system.mem_ctrls1.wrQLenPdf::44                     0                       # What write queue length does an incoming req see
system.mem_ctrls1.wrQLenPdf::45                     0                       # What write queue length does an incoming req see
system.mem_ctrls1.wrQLenPdf::46                     0                       # What write queue length does an incoming req see
system.mem_ctrls1.wrQLenPdf::47                     0                       # What write queue length does an incoming req see
system.mem_ctrls1.wrQLenPdf::48                     0                       # What write queue length does an incoming req see
system.mem_ctrls1.wrQLenPdf::49                     0                       # What write queue length does an incoming req see
system.mem_ctrls1.wrQLenPdf::50                     0                       # What write queue length does an incoming req see
system.mem_ctrls1.wrQLenPdf::51                     0                       # What write queue length does an incoming req see
system.mem_ctrls1.wrQLenPdf::52                     0                       # What write queue length does an incoming req see
system.mem_ctrls1.wrQLenPdf::53                     0                       # What write queue length does an incoming req see
system.mem_ctrls1.wrQLenPdf::54                     0                       # What write queue length does an incoming req see
system.mem_ctrls1.wrQLenPdf::55                     0                       # What write queue length does an incoming req see
system.mem_ctrls1.wrQLenPdf::56                     0                       # What write queue length does an incoming req see
system.mem_ctrls1.wrQLenPdf::57                     0                       # What write queue length does an incoming req see
system.mem_ctrls1.wrQLenPdf::58                     0                       # What write queue length does an incoming req see
system.mem_ctrls1.wrQLenPdf::59                     0                       # What write queue length does an incoming req see
system.mem_ctrls1.wrQLenPdf::60                     0                       # What write queue length does an incoming req see
system.mem_ctrls1.wrQLenPdf::61                     0                       # What write queue length does an incoming req see
system.mem_ctrls1.wrQLenPdf::62                     0                       # What write queue length does an incoming req see
system.mem_ctrls1.wrQLenPdf::63                     0                       # What write queue length does an incoming req see
system.mem_ctrls1.bytesPerActivate::samples        33074                       # Bytes accessed per row activation
system.mem_ctrls1.bytesPerActivate::mean   104.715486                       # Bytes accessed per row activation
system.mem_ctrls1.bytesPerActivate::gmean    80.304505                       # Bytes accessed per row activation
system.mem_ctrls1.bytesPerActivate::stdev   118.540503                       # Bytes accessed per row activation
system.mem_ctrls1.bytesPerActivate::0-127        27712     83.79%     83.79% # Bytes accessed per row activation
system.mem_ctrls1.bytesPerActivate::128-255         2592      7.84%     91.62% # Bytes accessed per row activation
system.mem_ctrls1.bytesPerActivate::256-383          388      1.17%     92.80% # Bytes accessed per row activation
system.mem_ctrls1.bytesPerActivate::384-511          273      0.83%     93.62% # Bytes accessed per row activation
system.mem_ctrls1.bytesPerActivate::512-639         2040      6.17%     99.79% # Bytes accessed per row activation
system.mem_ctrls1.bytesPerActivate::640-767           45      0.14%     99.93% # Bytes accessed per row activation
system.mem_ctrls1.bytesPerActivate::768-895           10      0.03%     99.96% # Bytes accessed per row activation
system.mem_ctrls1.bytesPerActivate::896-1023            4      0.01%     99.97% # Bytes accessed per row activation
system.mem_ctrls1.bytesPerActivate::1024-1151           10      0.03%    100.00% # Bytes accessed per row activation
system.mem_ctrls1.bytesPerActivate::total        33074                       # Bytes accessed per row activation
system.mem_ctrls1.totQLat                  1690490750                       # Total ticks spent queuing
system.mem_ctrls1.totMemAccLat             2705315750                       # Total ticks spent from burst creation until serviced by the DRAM
system.mem_ctrls1.totBusLat                 270620000                       # Total ticks spent in databus transfers
system.mem_ctrls1.avgQLat                    31233.66                       # Average queueing delay per DRAM burst
system.mem_ctrls1.avgBusLat                   5000.00                       # Average bus latency per DRAM burst
system.mem_ctrls1.avgMemAccLat               49983.66                       # Average memory access latency per DRAM burst
system.mem_ctrls1.avgRdBW                       87.73                       # Average DRAM read bandwidth in MiByte/s
system.mem_ctrls1.avgWrBW                        0.00                       # Average achieved write bandwidth in MiByte/s
system.mem_ctrls1.avgRdBWSys                    87.73                       # Average system read bandwidth in MiByte/s
system.mem_ctrls1.avgWrBWSys                     0.00                       # Average system write bandwidth in MiByte/s
system.mem_ctrls1.peakBW                     12800.00                       # Theoretical peak bandwidth in MiByte/s
system.mem_ctrls1.busUtil                        0.69                       # Data bus utilization in percentage
system.mem_ctrls1.busUtilRead                    0.69                       # Data bus utilization in percentage for reads
system.mem_ctrls1.busUtilWrite                   0.00                       # Data bus utilization in percentage for writes
system.mem_ctrls1.avgRdQLen                      1.06                       # Average read queue length when enqueuing
system.mem_ctrls1.avgWrQLen                      0.00                       # Average write queue length when enqueuing
system.mem_ctrls1.readRowHits                   21046                       # Number of row buffer hits during reads
system.mem_ctrls1.writeRowHits                      0                       # Number of row buffer hits during writes
system.mem_ctrls1.readRowHitRate                38.88                       # Row buffer hit rate for reads
system.mem_ctrls1.writeRowHitRate                 nan                       # Row buffer hit rate for writes
system.mem_ctrls1.avgGap                    729497.82                       # Average gap between requests
system.mem_ctrls1.pageHitRate                   38.88                       # Row buffer hit rate, read and write combined
system.mem_ctrls1_0.actEnergy               109363380                       # Energy for activate commands per rank (pJ)
system.mem_ctrls1_0.preEnergy                58116630                       # Energy for precharge commands per rank (pJ)
system.mem_ctrls1_0.readEnergy              201369420                       # Energy for read commands per rank (pJ)
system.mem_ctrls1_0.writeEnergy                     0                       # Energy for write commands per rank (pJ)
system.mem_ctrls1_0.refreshEnergy        1385398560.000000                       # Energy for refresh commands per rank (pJ)
system.mem_ctrls1_0.actBackEnergy           689743320                       # Energy for active background per rank (pJ)
system.mem_ctrls1_0.preBackEnergy            32086080                       # Energy for precharge background per rank (pJ)
system.mem_ctrls1_0.actPowerDownEnergy     6946542120                       # Energy for active power-down per rank (pJ)
system.mem_ctrls1_0.prePowerDownEnergy      207208320                       # Energy for precharge power-down per rank (pJ)
system.mem_ctrls1_0.selfRefreshEnergy      5321843640                       # Energy for self refresh per rank (pJ)
system.mem_ctrls1_0.totalEnergy           14951671470                       # Total energy per rank (pJ)
system.mem_ctrls1_0.averagePower           378.677436                       # Core power per rank (mW)
system.mem_ctrls1_0.totalIdleTime         37887724750                       # Total Idle time Per DRAM Rank
system.mem_ctrls1_0.memoryStateTime::IDLE     20602250                       # Time in different power states
system.mem_ctrls1_0.memoryStateTime::REF    586196000                       # Time in different power states
system.mem_ctrls1_0.memoryStateTime::SREF  22114525250                       # Time in different power states
system.mem_ctrls1_0.memoryStateTime::PRE_PDN    539493250                       # Time in different power states
system.mem_ctrls1_0.memoryStateTime::ACT    989264500                       # Time in different power states
system.mem_ctrls1_0.memoryStateTime::ACT_PDN  15233842750                       # Time in different power states
system.mem_ctrls1_1.actEnergy               126813540                       # Energy for activate commands per rank (pJ)
system.mem_ctrls1_1.preEnergy                67399200                       # Energy for precharge commands per rank (pJ)
system.mem_ctrls1_1.readEnergy              185075940                       # Energy for read commands per rank (pJ)
system.mem_ctrls1_1.writeEnergy                     0                       # Energy for write commands per rank (pJ)
system.mem_ctrls1_1.refreshEnergy        999404640.000000                       # Energy for refresh commands per rank (pJ)
system.mem_ctrls1_1.actBackEnergy           596035320                       # Energy for active background per rank (pJ)
system.mem_ctrls1_1.preBackEnergy            24428160                       # Energy for precharge background per rank (pJ)
system.mem_ctrls1_1.actPowerDownEnergy     4736371680                       # Energy for active power-down per rank (pJ)
system.mem_ctrls1_1.prePowerDownEnergy      258755040                       # Energy for precharge power-down per rank (pJ)
system.mem_ctrls1_1.selfRefreshEnergy      6510294180                       # Energy for self refresh per rank (pJ)
system.mem_ctrls1_1.totalEnergy           13504577700                       # Total energy per rank (pJ)
system.mem_ctrls1_1.averagePower           342.027235                       # Core power per rank (mW)
system.mem_ctrls1_1.totalIdleTime         38113061000                       # Total Idle time Per DRAM Rank
system.mem_ctrls1_1.memoryStateTime::IDLE     17945250                       # Time in different power states
system.mem_ctrls1_1.memoryStateTime::REF    422952000                       # Time in different power states
system.mem_ctrls1_1.memoryStateTime::SREF  27052593000                       # Time in different power states
system.mem_ctrls1_1.memoryStateTime::PRE_PDN    673732500                       # Time in different power states
system.mem_ctrls1_1.memoryStateTime::ACT    929581500                       # Time in different power states
system.mem_ctrls1_1.memoryStateTime::ACT_PDN  10387119750                       # Time in different power states
system.mem_ctrls2.pwrStateResidencyTicks::UNDEFINED  39483924000                       # Cumulative time (in ticks) in various power states
system.mem_ctrls2.bytes_read::ruby.dir_cntrl2      3479168                       # Number of bytes read from this memory
system.mem_ctrls2.bytes_read::total           3479168                       # Number of bytes read from this memory
system.mem_ctrls2.num_reads::ruby.dir_cntrl2        54362                       # Number of read requests responded to by this memory
system.mem_ctrls2.num_reads::total              54362                       # Number of read requests responded to by this memory
system.mem_ctrls2.bw_read::ruby.dir_cntrl2     88116065                       # Total read bandwidth from this memory (bytes/s)
system.mem_ctrls2.bw_read::total             88116065                       # Total read bandwidth from this memory (bytes/s)
system.mem_ctrls2.bw_total::ruby.dir_cntrl2     88116065                       # Total bandwidth to/from this memory (bytes/s)
system.mem_ctrls2.bw_total::total            88116065                       # Total bandwidth to/from this memory (bytes/s)
system.mem_ctrls2.readReqs                      54362                       # Number of read requests accepted
system.mem_ctrls2.avgNetLat                      0.00                       # Average network latency to DRAM controller
system.mem_ctrls2.writeReqs                         0                       # Number of write requests accepted
system.mem_ctrls2.readBursts                    54362                       # Number of DRAM read bursts, including those serviced by the write queue
system.mem_ctrls2.writeBursts                       0                       # Number of DRAM write bursts, including those merged in the write queue
system.mem_ctrls2.bytesReadDRAM               3479168                       # Total number of bytes read from DRAM
system.mem_ctrls2.bytesReadWrQ                      0                       # Total number of bytes read from write queue
system.mem_ctrls2.bytesWritten                      0                       # Total number of bytes written to DRAM
system.mem_ctrls2.bytesReadSys                3479168                       # Total read bytes from the system interface side
system.mem_ctrls2.bytesWrittenSys                   0                       # Total written bytes from the system interface side
system.mem_ctrls2.servicedByWrQ                     0                       # Number of DRAM read bursts serviced by the write queue
system.mem_ctrls2.mergedWrBursts                    0                       # Number of DRAM write bursts merged with an existing one
system.mem_ctrls2.neitherReadNorWriteReqs            0                       # Number of requests that are neither read nor write
system.mem_ctrls2.perBankRdBursts::0             4432                       # Per bank write bursts
system.mem_ctrls2.perBankRdBursts::1             3752                       # Per bank write bursts
system.mem_ctrls2.perBankRdBursts::2             3459                       # Per bank write bursts
system.mem_ctrls2.perBankRdBursts::3             3701                       # Per bank write bursts
system.mem_ctrls2.perBankRdBursts::4             3199                       # Per bank write bursts
system.mem_ctrls2.perBankRdBursts::5             3215                       # Per bank write bursts
system.mem_ctrls2.perBankRdBursts::6             3301                       # Per bank write bursts
system.mem_ctrls2.perBankRdBursts::7             3220                       # Per bank write bursts
system.mem_ctrls2.perBankRdBursts::8             2926                       # Per bank write bursts
system.mem_ctrls2.perBankRdBursts::9             2839                       # Per bank write bursts
system.mem_ctrls2.perBankRdBursts::10            2658                       # Per bank write bursts
system.mem_ctrls2.perBankRdBursts::11            2736                       # Per bank write bursts
system.mem_ctrls2.perBankRdBursts::12            3133                       # Per bank write bursts
system.mem_ctrls2.perBankRdBursts::13            3658                       # Per bank write bursts
system.mem_ctrls2.perBankRdBursts::14            4001                       # Per bank write bursts
system.mem_ctrls2.perBankRdBursts::15            4132                       # Per bank write bursts
system.mem_ctrls2.perBankWrBursts::0                0                       # Per bank write bursts
system.mem_ctrls2.perBankWrBursts::1                0                       # Per bank write bursts
system.mem_ctrls2.perBankWrBursts::2                0                       # Per bank write bursts
system.mem_ctrls2.perBankWrBursts::3                0                       # Per bank write bursts
system.mem_ctrls2.perBankWrBursts::4                0                       # Per bank write bursts
system.mem_ctrls2.perBankWrBursts::5                0                       # Per bank write bursts
system.mem_ctrls2.perBankWrBursts::6                0                       # Per bank write bursts
system.mem_ctrls2.perBankWrBursts::7                0                       # Per bank write bursts
system.mem_ctrls2.perBankWrBursts::8                0                       # Per bank write bursts
system.mem_ctrls2.perBankWrBursts::9                0                       # Per bank write bursts
system.mem_ctrls2.perBankWrBursts::10               0                       # Per bank write bursts
system.mem_ctrls2.perBankWrBursts::11               0                       # Per bank write bursts
system.mem_ctrls2.perBankWrBursts::12               0                       # Per bank write bursts
system.mem_ctrls2.perBankWrBursts::13               0                       # Per bank write bursts
system.mem_ctrls2.perBankWrBursts::14               0                       # Per bank write bursts
system.mem_ctrls2.perBankWrBursts::15               0                       # Per bank write bursts
system.mem_ctrls2.numRdRetry                        0                       # Number of times read queue was full causing retry
system.mem_ctrls2.numWrRetry                        0                       # Number of times write queue was full causing retry
system.mem_ctrls2.totGap                  39482903000                       # Total gap between requests
system.mem_ctrls2.readPktSize::0                    0                       # Read request sizes (log2)
system.mem_ctrls2.readPktSize::1                    0                       # Read request sizes (log2)
system.mem_ctrls2.readPktSize::2                    0                       # Read request sizes (log2)
system.mem_ctrls2.readPktSize::3                    0                       # Read request sizes (log2)
system.mem_ctrls2.readPktSize::4                    0                       # Read request sizes (log2)
system.mem_ctrls2.readPktSize::5                    0                       # Read request sizes (log2)
system.mem_ctrls2.readPktSize::6                54362                       # Read request sizes (log2)
system.mem_ctrls2.writePktSize::0                   0                       # Write request sizes (log2)
system.mem_ctrls2.writePktSize::1                   0                       # Write request sizes (log2)
system.mem_ctrls2.writePktSize::2                   0                       # Write request sizes (log2)
system.mem_ctrls2.writePktSize::3                   0                       # Write request sizes (log2)
system.mem_ctrls2.writePktSize::4                   0                       # Write request sizes (log2)
system.mem_ctrls2.writePktSize::5                   0                       # Write request sizes (log2)
system.mem_ctrls2.writePktSize::6                   0                       # Write request sizes (log2)
system.mem_ctrls2.rdQLenPdf::0                  39930                       # What read queue length does an incoming req see
system.mem_ctrls2.rdQLenPdf::1                   9250                       # What read queue length does an incoming req see
system.mem_ctrls2.rdQLenPdf::2                   3255                       # What read queue length does an incoming req see
system.mem_ctrls2.rdQLenPdf::3                   1209                       # What read queue length does an incoming req see
system.mem_ctrls2.rdQLenPdf::4                    461                       # What read queue length does an incoming req see
system.mem_ctrls2.rdQLenPdf::5                    146                       # What read queue length does an incoming req see
system.mem_ctrls2.rdQLenPdf::6                     60                       # What read queue length does an incoming req see
system.mem_ctrls2.rdQLenPdf::7                     24                       # What read queue length does an incoming req see
system.mem_ctrls2.rdQLenPdf::8                     15                       # What read queue length does an incoming req see
system.mem_ctrls2.rdQLenPdf::9                     10                       # What read queue length does an incoming req see
system.mem_ctrls2.rdQLenPdf::10                     2                       # What read queue length does an incoming req see
system.mem_ctrls2.rdQLenPdf::11                     0                       # What read queue length does an incoming req see
system.mem_ctrls2.rdQLenPdf::12                     0                       # What read queue length does an incoming req see
system.mem_ctrls2.rdQLenPdf::13                     0                       # What read queue length does an incoming req see
system.mem_ctrls2.rdQLenPdf::14                     0                       # What read queue length does an incoming req see
system.mem_ctrls2.rdQLenPdf::15                     0                       # What read queue length does an incoming req see
system.mem_ctrls2.rdQLenPdf::16                     0                       # What read queue length does an incoming req see
system.mem_ctrls2.rdQLenPdf::17                     0                       # What read queue length does an incoming req see
system.mem_ctrls2.rdQLenPdf::18                     0                       # What read queue length does an incoming req see
system.mem_ctrls2.rdQLenPdf::19                     0                       # What read queue length does an incoming req see
system.mem_ctrls2.rdQLenPdf::20                     0                       # What read queue length does an incoming req see
system.mem_ctrls2.rdQLenPdf::21                     0                       # What read queue length does an incoming req see
system.mem_ctrls2.rdQLenPdf::22                     0                       # What read queue length does an incoming req see
system.mem_ctrls2.rdQLenPdf::23                     0                       # What read queue length does an incoming req see
system.mem_ctrls2.rdQLenPdf::24                     0                       # What read queue length does an incoming req see
system.mem_ctrls2.rdQLenPdf::25                     0                       # What read queue length does an incoming req see
system.mem_ctrls2.rdQLenPdf::26                     0                       # What read queue length does an incoming req see
system.mem_ctrls2.rdQLenPdf::27                     0                       # What read queue length does an incoming req see
system.mem_ctrls2.rdQLenPdf::28                     0                       # What read queue length does an incoming req see
system.mem_ctrls2.rdQLenPdf::29                     0                       # What read queue length does an incoming req see
system.mem_ctrls2.rdQLenPdf::30                     0                       # What read queue length does an incoming req see
system.mem_ctrls2.rdQLenPdf::31                     0                       # What read queue length does an incoming req see
system.mem_ctrls2.wrQLenPdf::0                      0                       # What write queue length does an incoming req see
system.mem_ctrls2.wrQLenPdf::1                      0                       # What write queue length does an incoming req see
system.mem_ctrls2.wrQLenPdf::2                      0                       # What write queue length does an incoming req see
system.mem_ctrls2.wrQLenPdf::3                      0                       # What write queue length does an incoming req see
system.mem_ctrls2.wrQLenPdf::4                      0                       # What write queue length does an incoming req see
system.mem_ctrls2.wrQLenPdf::5                      0                       # What write queue length does an incoming req see
system.mem_ctrls2.wrQLenPdf::6                      0                       # What write queue length does an incoming req see
system.mem_ctrls2.wrQLenPdf::7                      0                       # What write queue length does an incoming req see
system.mem_ctrls2.wrQLenPdf::8                      0                       # What write queue length does an incoming req see
system.mem_ctrls2.wrQLenPdf::9                      0                       # What write queue length does an incoming req see
system.mem_ctrls2.wrQLenPdf::10                     0                       # What write queue length does an incoming req see
system.mem_ctrls2.wrQLenPdf::11                     0                       # What write queue length does an incoming req see
system.mem_ctrls2.wrQLenPdf::12                     0                       # What write queue length does an incoming req see
system.mem_ctrls2.wrQLenPdf::13                     0                       # What write queue length does an incoming req see
system.mem_ctrls2.wrQLenPdf::14                     0                       # What write queue length does an incoming req see
system.mem_ctrls2.wrQLenPdf::15                     0                       # What write queue length does an incoming req see
system.mem_ctrls2.wrQLenPdf::16                     0                       # What write queue length does an incoming req see
system.mem_ctrls2.wrQLenPdf::17                     0                       # What write queue length does an incoming req see
system.mem_ctrls2.wrQLenPdf::18                     0                       # What write queue length does an incoming req see
system.mem_ctrls2.wrQLenPdf::19                     0                       # What write queue length does an incoming req see
system.mem_ctrls2.wrQLenPdf::20                     0                       # What write queue length does an incoming req see
system.mem_ctrls2.wrQLenPdf::21                     0                       # What write queue length does an incoming req see
system.mem_ctrls2.wrQLenPdf::22                     0                       # What write queue length does an incoming req see
system.mem_ctrls2.wrQLenPdf::23                     0                       # What write queue length does an incoming req see
system.mem_ctrls2.wrQLenPdf::24                     0                       # What write queue length does an incoming req see
system.mem_ctrls2.wrQLenPdf::25                     0                       # What write queue length does an incoming req see
system.mem_ctrls2.wrQLenPdf::26                     0                       # What write queue length does an incoming req see
system.mem_ctrls2.wrQLenPdf::27                     0                       # What write queue length does an incoming req see
system.mem_ctrls2.wrQLenPdf::28                     0                       # What write queue length does an incoming req see
system.mem_ctrls2.wrQLenPdf::29                     0                       # What write queue length does an incoming req see
system.mem_ctrls2.wrQLenPdf::30                     0                       # What write queue length does an incoming req see
system.mem_ctrls2.wrQLenPdf::31                     0                       # What write queue length does an incoming req see
system.mem_ctrls2.wrQLenPdf::32                     0                       # What write queue length does an incoming req see
system.mem_ctrls2.wrQLenPdf::33                     0                       # What write queue length does an incoming req see
system.mem_ctrls2.wrQLenPdf::34                     0                       # What write queue length does an incoming req see
system.mem_ctrls2.wrQLenPdf::35                     0                       # What write queue length does an incoming req see
system.mem_ctrls2.wrQLenPdf::36                     0                       # What write queue length does an incoming req see
system.mem_ctrls2.wrQLenPdf::37                     0                       # What write queue length does an incoming req see
system.mem_ctrls2.wrQLenPdf::38                     0                       # What write queue length does an incoming req see
system.mem_ctrls2.wrQLenPdf::39                     0                       # What write queue length does an incoming req see
system.mem_ctrls2.wrQLenPdf::40                     0                       # What write queue length does an incoming req see
system.mem_ctrls2.wrQLenPdf::41                     0                       # What write queue length does an incoming req see
system.mem_ctrls2.wrQLenPdf::42                     0                       # What write queue length does an incoming req see
system.mem_ctrls2.wrQLenPdf::43                     0                       # What write queue length does an incoming req see
system.mem_ctrls2.wrQLenPdf::44                     0                       # What write queue length does an incoming req see
system.mem_ctrls2.wrQLenPdf::45                     0                       # What write queue length does an incoming req see
system.mem_ctrls2.wrQLenPdf::46                     0                       # What write queue length does an incoming req see
system.mem_ctrls2.wrQLenPdf::47                     0                       # What write queue length does an incoming req see
system.mem_ctrls2.wrQLenPdf::48                     0                       # What write queue length does an incoming req see
system.mem_ctrls2.wrQLenPdf::49                     0                       # What write queue length does an incoming req see
system.mem_ctrls2.wrQLenPdf::50                     0                       # What write queue length does an incoming req see
system.mem_ctrls2.wrQLenPdf::51                     0                       # What write queue length does an incoming req see
system.mem_ctrls2.wrQLenPdf::52                     0                       # What write queue length does an incoming req see
system.mem_ctrls2.wrQLenPdf::53                     0                       # What write queue length does an incoming req see
system.mem_ctrls2.wrQLenPdf::54                     0                       # What write queue length does an incoming req see
system.mem_ctrls2.wrQLenPdf::55                     0                       # What write queue length does an incoming req see
system.mem_ctrls2.wrQLenPdf::56                     0                       # What write queue length does an incoming req see
system.mem_ctrls2.wrQLenPdf::57                     0                       # What write queue length does an incoming req see
system.mem_ctrls2.wrQLenPdf::58                     0                       # What write queue length does an incoming req see
system.mem_ctrls2.wrQLenPdf::59                     0                       # What write queue length does an incoming req see
system.mem_ctrls2.wrQLenPdf::60                     0                       # What write queue length does an incoming req see
system.mem_ctrls2.wrQLenPdf::61                     0                       # What write queue length does an incoming req see
system.mem_ctrls2.wrQLenPdf::62                     0                       # What write queue length does an incoming req see
system.mem_ctrls2.wrQLenPdf::63                     0                       # What write queue length does an incoming req see
system.mem_ctrls2.bytesPerActivate::samples        33232                       # Bytes accessed per row activation
system.mem_ctrls2.bytesPerActivate::mean   104.679827                       # Bytes accessed per row activation
system.mem_ctrls2.bytesPerActivate::gmean    80.298537                       # Bytes accessed per row activation
system.mem_ctrls2.bytesPerActivate::stdev   118.589136                       # Bytes accessed per row activation
system.mem_ctrls2.bytesPerActivate::0-127        27845     83.79%     83.79% # Bytes accessed per row activation
system.mem_ctrls2.bytesPerActivate::128-255         2651      7.98%     91.77% # Bytes accessed per row activation
system.mem_ctrls2.bytesPerActivate::256-383          380      1.14%     92.91% # Bytes accessed per row activation
system.mem_ctrls2.bytesPerActivate::384-511          172      0.52%     93.43% # Bytes accessed per row activation
system.mem_ctrls2.bytesPerActivate::512-639         2121      6.38%     99.81% # Bytes accessed per row activation
system.mem_ctrls2.bytesPerActivate::640-767           42      0.13%     99.94% # Bytes accessed per row activation
system.mem_ctrls2.bytesPerActivate::768-895            5      0.02%     99.95% # Bytes accessed per row activation
system.mem_ctrls2.bytesPerActivate::1024-1151           16      0.05%    100.00% # Bytes accessed per row activation
[...]
system.ruby.L2Cache_Controller.L1_GETS::total       165350                      
system.ruby.L2Cache_Controller.L1_GETX   |       23681      6.22%      6.22% |       23849      6.27%     12.49% |       23847      6.27%     18.76% |       23754      6.24%     25.00% |       23887      6.28%     31.27% |       23792      6.25%     37.53% |       23762      6.24%     43.77% |       23924      6.29%     50.06% |       23771      6.25%     56.30% |       23804      6.25%     62.56% |       23823      6.26%     68.82% |       23716      6.23%     75.05% |       23751      6.24%     81.29% |       23650      6.21%     87.51% |       23774      6.25%     93.75% |       23777      6.25%    100.00%
system.ruby.L2Cache_Controller.L1_GETX::total       380562                      
system.ruby.L2Cache_Controller.L1_PUTX   |       32744      6.20%      6.20% |       32750      6.21%     12.41% |       32526      6.16%     18.57% |       33199      6.29%     24.86% |       32725      6.20%     31.06% |       32636      6.18%     37.25% |       32792      6.21%     43.46% |       33235      6.30%     49.76% |       33093      6.27%     56.03% |       32750      6.21%     62.23% |       32968      6.25%     68.48% |       33545      6.36%     74.83% |       33389      6.33%     81.16% |       33373      6.32%     87.48% |       33359      6.32%     93.80% |       32697      6.20%    100.00%
system.ruby.L2Cache_Controller.L1_PUTX::total       527781                      
system.ruby.L2Cache_Controller.L2_Replacement_clean |           0      0.00%      0.00% |           0      0.00%      0.00% |           0      0.00%      0.00% |           0      0.00%      0.00% |           1     25.00%     25.00% |           1     25.00%     50.00% |           0      0.00%     50.00% |           0      0.00%     50.00% |           0      0.00%     50.00% |           0      0.00%     50.00% |           0      0.00%     50.00% |           0      0.00%     50.00% |           1     25.00%     75.00% |           0      0.00%     75.00% |           0      0.00%     75.00% |           1     25.00%    100.00%
system.ruby.L2Cache_Controller.L2_Replacement_clean::total            4                      
system.ruby.L2Cache_Controller.Mem_Data  |       13622      6.27%      6.27% |       13496      6.21%     12.48% |       13412      6.17%     18.65% |       13552      6.24%     24.89% |       13384      6.16%     31.05% |       13538      6.23%     37.28% |       13594      6.26%     43.53% |       13608      6.26%     49.79% |       13734      6.32%     56.11% |       13328      6.13%     62.25% |       13538      6.23%     68.48% |       13538      6.23%     74.71% |       13706      6.31%     81.01% |       13762      6.33%     87.35% |       13818      6.36%     93.71% |       13678      6.29%    100.00%
system.ruby.L2Cache_Controller.Mem_Data::total       217308                      
system.ruby.L2Cache_Controller.Mem_Ack   |           0      0.00%      0.00% |           0      0.00%      0.00% |           0      0.00%      0.00% |           0      0.00%      0.00% |           1     25.00%     25.00% |           1     25.00%     50.00% |           0      0.00%     50.00% |           0      0.00%     50.00% |           0      0.00%     50.00% |           0      0.00%     50.00% |           0      0.00%     50.00% |           0      0.00%     50.00% |           1     25.00%     75.00% |           0      0.00%     75.00% |           0      0.00%     75.00% |           1     25.00%    100.00%
system.ruby.L2Cache_Controller.Mem_Ack::total            4                      
system.ruby.L2Cache_Controller.WB_Data   |          14      4.11%      4.11% |          14      4.11%      8.21% |          28      8.21%     16.42% |          28      8.21%     24.63% |          28      8.21%     32.84% |          28      8.21%     41.06% |          28      8.21%     49.27% |          28      8.21%     57.48% |          25      7.33%     64.81% |          27      7.92%     72.73% |          23      6.74%     79.47% |          14      4.11%     83.58% |          14      4.11%     87.68% |          14      4.11%     91.79% |          14      4.11%     95.89% |          14      4.11%    100.00%
system.ruby.L2Cache_Controller.WB_Data::total          341                      
system.ruby.L2Cache_Controller.Unblock   |          14      4.11%      4.11% |          14      4.11%      8.21% |          28      8.21%     16.42% |          28      8.21%     24.63% |          28      8.21%     32.84% |          28      8.21%     41.06% |          28      8.21%     49.27% |          28      8.21%     57.48% |          25      7.33%     64.81% |          27      7.92%     72.73% |          23      6.74%     79.47% |          14      4.11%     83.58% |          14      4.11%     87.68% |          14      4.11%     91.79% |          14      4.11%     95.89% |          14      4.11%    100.00%
system.ruby.L2Cache_Controller.Unblock::total          341                      
system.ruby.L2Cache_Controller.Exclusive_Unblock |       33771      6.21%      6.21% |       33775      6.21%     12.41% |       33552      6.17%     18.58% |       34223      6.29%     24.87% |       33752      6.20%     31.07% |       33660      6.19%     37.25% |       33817      6.21%     43.47% |       34247      6.29%     49.76% |       34121      6.27%     56.03% |       33778      6.21%     62.24% |       33992      6.25%     68.49% |       34569      6.35%     74.84% |       34418      6.32%     81.16% |       34397      6.32%     87.48% |       34384      6.32%     93.80% |       33723      6.20%    100.00%
system.ruby.L2Cache_Controller.Exclusive_Unblock::total       544179                      
system.ruby.L2Cache_Controller.NP.L1_GET_INSTR |        1274      6.27%      6.27% |        1302      6.41%     12.68% |        1442      7.10%     19.78% |        1232      6.06%     25.84% |        1274      6.27%     32.12% |        1274      6.27%     38.39% |        1246      6.13%     44.52% |        1246      6.13%     50.65% |        1316      6.48%     57.13% |        1106      5.44%     62.58% |        1190      5.86%     68.44% |        1218      6.00%     74.43% |        1190      5.86%     80.29% |        1260      6.20%     86.49% |        1442      7.10%     93.59% |        1302      6.41%    100.00%
system.ruby.L2Cache_Controller.NP.L1_GET_INSTR::total        20314                      
system.ruby.L2Cache_Controller.NP.L1_GETS |        6692      6.31%      6.31% |        6468      6.10%     12.42% |        6216      5.86%     18.28% |        6608      6.23%     24.51% |        6370      6.01%     30.52% |        6566      6.19%     36.72% |        6636      6.26%     42.98% |        6664      6.29%     49.27% |        6748      6.37%     55.63% |        6566      6.19%     61.83% |        6678      6.30%     68.13% |        6692      6.31%     74.44% |        6874      6.49%     80.93% |        6818      6.43%     87.36% |        6692      6.31%     93.67% |        6706      6.33%    100.00%
system.ruby.L2Cache_Controller.NP.L1_GETS::total       105994                      
system.ruby.L2Cache_Controller.NP.L1_GETX |        5656      6.22%      6.22% |        5726      6.29%     12.51% |        5754      6.32%     18.83% |        5712      6.28%     25.11% |        5740      6.31%     31.42% |        5698      6.26%     37.68% |        5712      6.28%     43.95% |        5698      6.26%     50.22% |        5670      6.23%     56.45% |        5656      6.22%     62.66% |        5670      6.23%     68.89% |        5628      6.18%     75.08% |        5642      6.20%     81.28% |        5684      6.25%     87.52% |        5684      6.25%     93.77% |        5670      6.23%    100.00%
system.ruby.L2Cache_Controller.NP.L1_GETX::total        91000                      
system.ruby.L2Cache_Controller.SS.L1_GET_INSTR |         109      4.67%      4.67% |         153      6.55%     11.22% |         319     13.66%     24.88% |          72      3.08%     27.97% |         413     17.69%     45.65% |         107      4.58%     50.24% |         225      9.64%     59.87% |         117      5.01%     64.88% |         160      6.85%     71.73% |          56      2.40%     74.13% |         131      5.61%     79.74% |         123      5.27%     85.01% |          67      2.87%     87.88% |          79      3.38%     91.26% |         131      5.61%     96.87% |          73      3.13%    100.00%
system.ruby.L2Cache_Controller.SS.L1_GET_INSTR::total         2335                      
system.ruby.L2Cache_Controller.SS.L1_GETS |          56      4.02%      4.02% |          56      4.02%      8.05% |         112      8.05%     16.09% |         112      8.05%     24.14% |         112      8.05%     32.18% |         112      8.05%     40.23% |         112      8.05%     48.28% |         126      9.05%     57.33% |         100      7.18%     64.51% |         122      8.76%     73.28% |          92      6.61%     79.89% |          56      4.02%     83.91% |          56      4.02%     87.93% |          56      4.02%     91.95% |          56      4.02%     95.98% |          56      4.02%    100.00%
system.ruby.L2Cache_Controller.SS.L1_GETS::total         1392                      
system.ruby.L2Cache_Controller.M.L1_GET_INSTR |          14     25.00%     25.00% |           0      0.00%     25.00% |           0      0.00%     25.00% |           0      0.00%     25.00% |           0      0.00%     25.00% |           0      0.00%     25.00% |           0      0.00%     25.00% |          14     25.00%     50.00% |           0      0.00%     50.00% |          14     25.00%     75.00% |           0      0.00%     75.00% |           0      0.00%     75.00% |           0      0.00%     75.00% |           0      0.00%     75.00% |          14     25.00%    100.00% |           0      0.00%    100.00%
system.ruby.L2Cache_Controller.M.L1_GET_INSTR::total           56                      
system.ruby.L2Cache_Controller.M.L1_GETS |        3398      5.90%      5.90% |        3458      6.00%     11.90% |        3489      6.05%     17.95% |        3861      6.70%     24.65% |        3495      6.07%     30.72% |        3302      5.73%     36.45% |        3419      5.93%     42.38% |        3659      6.35%     48.73% |        3602      6.25%     54.98% |        3408      5.91%     60.90% |        3491      6.06%     66.96% |        4161      7.22%     74.18% |        3793      6.58%     80.76% |        3929      6.82%     87.58% |        3918      6.80%     94.38% |        3240      5.62%    100.00%
system.ruby.L2Cache_Controller.M.L1_GETS::total        57623                      
system.ruby.L2Cache_Controller.M.L1_GETX |       18025      6.22%      6.22% |       18123      6.26%     12.48% |       18093      6.25%     18.73% |       18042      6.23%     24.96% |       18147      6.27%     31.23% |       18094      6.25%     37.48% |       18050      6.23%     43.71% |       18226      6.29%     50.01% |       18101      6.25%     56.26% |       18148      6.27%     62.53% |       18153      6.27%     68.79% |       18088      6.25%     75.04% |       18109      6.25%     81.29% |       17966      6.20%     87.50% |       18090      6.25%     93.75% |       18107      6.25%    100.00%
system.ruby.L2Cache_Controller.M.L1_GETX::total       289562                      
system.ruby.L2Cache_Controller.M.L2_Replacement_clean |           0      0.00%      0.00% |           0      0.00%      0.00% |           0      0.00%      0.00% |           0      0.00%      0.00% |           1     25.00%     25.00% |           1     25.00%     50.00% |           0      0.00%     50.00% |           0      0.00%     50.00% |           0      0.00%     50.00% |           0      0.00%     50.00% |           0      0.00%     50.00% |           0      0.00%     50.00% |           1     25.00%     75.00% |           0      0.00%     75.00% |           0      0.00%     75.00% |           1     25.00%    100.00%
system.ruby.L2Cache_Controller.M.L2_Replacement_clean::total            4                      
system.ruby.L2Cache_Controller.MT.L1_GETS |          14      4.11%      4.11% |          14      4.11%      8.21% |          28      8.21%     16.42% |          28      8.21%     24.63% |          28      8.21%     32.84% |          28      8.21%     41.06% |          28      8.21%     49.27% |          28      8.21%     57.48% |          25      7.33%     64.81% |          27      7.92%     72.73% |          23      6.74%     79.47% |          14      4.11%     83.58% |          14      4.11%     87.68% |          14      4.11%     91.79% |          14      4.11%     95.89% |          14      4.11%    100.00%
system.ruby.L2Cache_Controller.MT.L1_GETS::total          341                      
system.ruby.L2Cache_Controller.MT.L1_PUTX |       32744      6.20%      6.20% |       32750      6.21%     12.41% |       32526      6.16%     18.57% |       33199      6.29%     24.86% |       32725      6.20%     31.06% |       32636      6.18%     37.25% |       32792      6.21%     43.46% |       33235      6.30%     49.76% |       33093      6.27%     56.03% |       32750      6.21%     62.23% |       32968      6.25%     68.48% |       33545      6.36%     74.83% |       33389      6.33%     81.16% |       33373      6.32%     87.48% |       33359      6.32%     93.80% |       32697      6.20%    100.00%
system.ruby.L2Cache_Controller.MT.L1_PUTX::total       527781                      
system.ruby.L2Cache_Controller.M_I.Mem_Ack |           0      0.00%      0.00% |           0      0.00%      0.00% |           0      0.00%      0.00% |           0      0.00%      0.00% |           1     25.00%     25.00% |           1     25.00%     50.00% |           0      0.00%     50.00% |           0      0.00%     50.00% |           0      0.00%     50.00% |           0      0.00%     50.00% |           0      0.00%     50.00% |           0      0.00%     50.00% |           1     25.00%     75.00% |           0      0.00%     75.00% |           0      0.00%     75.00% |           1     25.00%    100.00%
system.ruby.L2Cache_Controller.M_I.Mem_Ack::total            4                      
system.ruby.L2Cache_Controller.ISS.Mem_Data |        6692      6.31%      6.31% |        6468      6.10%     12.42% |        6216      5.86%     18.28% |        6608      6.23%     24.51% |        6370      6.01%     30.52% |        6566      6.19%     36.72% |        6636      6.26%     42.98% |        6664      6.29%     49.27% |        6748      6.37%     55.63% |        6566      6.19%     61.83% |        6678      6.30%     68.13% |        6692      6.31%     74.44% |        6874      6.49%     80.93% |        6818      6.43%     87.36% |        6692      6.31%     93.67% |        6706      6.33%    100.00%
system.ruby.L2Cache_Controller.ISS.Mem_Data::total       105994                      
system.ruby.L2Cache_Controller.IS.Mem_Data |        1274      6.27%      6.27% |        1302      6.41%     12.68% |        1442      7.10%     19.78% |        1232      6.06%     25.84% |        1274      6.27%     32.12% |        1274      6.27%     38.39% |        1246      6.13%     44.52% |        1246      6.13%     50.65% |        1316      6.48%     57.13% |        1106      5.44%     62.58% |        1190      5.86%     68.44% |        1218      6.00%     74.43% |        1190      5.86%     80.29% |        1260      6.20%     86.49% |        1442      7.10%     93.59% |        1302      6.41%    100.00%
system.ruby.L2Cache_Controller.IS.Mem_Data::total        20314                      
system.ruby.L2Cache_Controller.IM.Mem_Data |        5656      6.22%      6.22% |        5726      6.29%     12.51% |        5754      6.32%     18.83% |        5712      6.28%     25.11% |        5740      6.31%     31.42% |        5698      6.26%     37.68% |        5712      6.28%     43.95% |        5698      6.26%     50.22% |        5670      6.23%     56.45% |        5656      6.22%     62.66% |        5670      6.23%     68.89% |        5628      6.18%     75.08% |        5642      6.20%     81.28% |        5684      6.25%     87.52% |        5684      6.25%     93.77% |        5670      6.23%    100.00%
system.ruby.L2Cache_Controller.IM.Mem_Data::total        91000                      
system.ruby.L2Cache_Controller.MT_MB.Exclusive_Unblock |       33771      6.21%      6.21% |       33775      6.21%     12.41% |       33552      6.17%     18.58% |       34223      6.29%     24.87% |       33752      6.20%     31.07% |       33660      6.19%     37.25% |       33817      6.21%     43.47% |       34247      6.29%     49.76% |       34121      6.27%     56.03% |       33778      6.21%     62.24% |       33992      6.25%     68.49% |       34569      6.35%     74.84% |       34418      6.32%     81.16% |       34397      6.32%     87.48% |       34384      6.32%     93.80% |       33723      6.20%    100.00%
system.ruby.L2Cache_Controller.MT_MB.Exclusive_Unblock::total       544179                      
system.ruby.L2Cache_Controller.MT_IIB.WB_Data |          14      4.13%      4.13% |          14      4.13%      8.26% |          27      7.96%     16.22% |          27      7.96%     24.19% |          28      8.26%     32.45% |          28      8.26%     40.71% |          28      8.26%     48.97% |          28      8.26%     57.23% |          25      7.37%     64.60% |          27      7.96%     72.57% |          23      6.78%     79.35% |          14      4.13%     83.48% |          14      4.13%     87.61% |          14      4.13%     91.74% |          14      4.13%     95.87% |          14      4.13%    100.00%
system.ruby.L2Cache_Controller.MT_IIB.WB_Data::total          339                      
system.ruby.L2Cache_Controller.MT_IIB.Unblock |           0      0.00%      0.00% |           0      0.00%      0.00% |           1     50.00%     50.00% |           1     50.00%    100.00% |           0      0.00%    100.00% |           0      0.00%    100.00% |           0      0.00%    100.00% |           0      0.00%    100.00% |           0      0.00%    100.00% |           0      0.00%    100.00% |           0      0.00%    100.00% |           0      0.00%    100.00% |           0      0.00%    100.00% |           0      0.00%    100.00% |           0      0.00%    100.00% |           0      0.00%    100.00%
system.ruby.L2Cache_Controller.MT_IIB.Unblock::total            2                      
system.ruby.L2Cache_Controller.MT_IB.WB_Data |           0      0.00%      0.00% |           0      0.00%      0.00% |           1     50.00%     50.00% |           1     50.00%    100.00% |           0      0.00%    100.00% |           0      0.00%    100.00% |           0      0.00%    100.00% |           0      0.00%    100.00% |           0      0.00%    100.00% |           0      0.00%    100.00% |           0      0.00%    100.00% |           0      0.00%    100.00% |           0      0.00%    100.00% |           0      0.00%    100.00% |           0      0.00%    100.00% |           0      0.00%    100.00%
system.ruby.L2Cache_Controller.MT_IB.WB_Data::total            2                      
system.ruby.L2Cache_Controller.MT_SB.Unblock |          14      4.13%      4.13% |          14      4.13%      8.26% |          27      7.96%     16.22% |          27      7.96%     24.19% |          28      8.26%     32.45% |          28      8.26%     40.71% |          28      8.26%     48.97% |          28      8.26%     57.23% |          25      7.37%     64.60% |          27      7.96%     72.57% |          23      6.78%     79.35% |          14      4.13%     83.48% |          14      4.13%     87.61% |          14      4.13%     91.74% |          14      4.13%     95.87% |          14      4.13%    100.00%
system.ruby.L2Cache_Controller.MT_SB.Unblock::total          339                      

---------- End Simulation Statistics   ----------
