
---------- Begin Simulation Statistics ----------
sim_seconds                                  0.014451                       # Number of seconds simulated
sim_ticks                                 14451009500                       # Number of ticks simulated
final_tick                                14451009500                       # Number of ticks from beginning of simulation (restored from checkpoints and never reset)
sim_freq                                 1000000000000                       # Frequency of simulated ticks
host_inst_rate                                   9259                       # Simulator instruction rate (inst/s)
host_op_rate                                    15960                       # Simulator op (including micro ops) rate (op/s)
host_tick_rate                                2712396                       # Simulator tick rate (ticks/s)
host_mem_usage                                2262848                       # Number of bytes of host memory used
host_seconds                                  5327.77                       # Real time elapsed on the host
sim_insts                                    49330220                       # Number of instructions simulated
sim_ops                                      85030551                       # Number of ops (including micro ops) simulated
system.voltage_domain.voltage                       1                       # Voltage in Volts
system.clk_domain.clock                          1000                       # Clock period in ticks
system.mem_ctrls0.pwrStateResidencyTicks::UNDEFINED  14451009500                       # Cumulative time (in ticks) in various power states
system.mem_ctrls0.bytes_read::ruby.dir_cntrl0      2212352                       # Number of bytes read from this memory
system.mem_ctrls0.bytes_read::total           2212352                       # Number of bytes read from this memory
system.mem_ctrls0.bytes_written::ruby.dir_cntrl0          576                       # Number of bytes written to this memory
system.mem_ctrls0.bytes_written::total            576                       # Number of bytes written to this memory
system.mem_ctrls0.num_reads::ruby.dir_cntrl0        34568                       # Number of read requests responded to by this memory
system.mem_ctrls0.num_reads::total              34568                       # Number of read requests responded to by this memory
system.mem_ctrls0.num_writes::ruby.dir_cntrl0            9                       # Number of write requests responded to by this memory
system.mem_ctrls0.num_writes::total                 9                       # Number of write requests responded to by this memory
system.mem_ctrls0.bw_read::ruby.dir_cntrl0    153093249                       # Total read bandwidth from this memory (bytes/s)
system.mem_ctrls0.bw_read::total            153093249                       # Total read bandwidth from this memory (bytes/s)
system.mem_ctrls0.bw_write::ruby.dir_cntrl0        39859                       # Write bandwidth from this memory (bytes/s)
system.mem_ctrls0.bw_write::total               39859                       # Write bandwidth from this memory (bytes/s)
system.mem_ctrls0.bw_total::ruby.dir_cntrl0    153133108                       # Total bandwidth to/from this memory (bytes/s)
system.mem_ctrls0.bw_total::total           153133108                       # Total bandwidth to/from this memory (bytes/s)
system.mem_ctrls0.readReqs                      34568                       # Number of read requests accepted
system.mem_ctrls0.writeReqs                         9                       # Number of write requests accepted
system.mem_ctrls0.readBursts                    34568                       # Number of DRAM read bursts, including those serviced by the write queue
system.mem_ctrls0.writeBursts                       9                       # Number of DRAM write bursts, including those merged in the write queue
system.mem_ctrls0.bytesReadDRAM               2212288                       # Total number of bytes read from DRAM
system.mem_ctrls0.bytesReadWrQ                     64                       # Total number of bytes read from write queue
system.mem_ctrls0.bytesWritten                      0                       # Total number of bytes written to DRAM
system.mem_ctrls0.bytesReadSys                2212352                       # Total read bytes from the system interface side
system.mem_ctrls0.bytesWrittenSys                 576                       # Total written bytes from the system interface side
system.mem_ctrls0.servicedByWrQ                     1                       # Number of DRAM read bursts serviced by the write queue
system.mem_ctrls0.mergedWrBursts                    0                       # Number of DRAM write bursts merged with an existing one
system.mem_ctrls0.neitherReadNorWriteReqs            0                       # Number of requests that are neither read nor write
system.mem_ctrls0.perBankRdBursts::0             2056                       # Per bank write bursts
system.mem_ctrls0.perBankRdBursts::1             1961                       # Per bank write bursts
system.mem_ctrls0.perBankRdBursts::2             2134                       # Per bank write bursts
system.mem_ctrls0.perBankRdBursts::3             2239                       # Per bank write bursts
system.mem_ctrls0.perBankRdBursts::4             1988                       # Per bank write bursts
system.mem_ctrls0.perBankRdBursts::5             2317                       # Per bank write bursts
system.mem_ctrls0.perBankRdBursts::6             2458                       # Per bank write bursts
system.mem_ctrls0.perBankRdBursts::7             1985                       # Per bank write bursts
system.mem_ctrls0.perBankRdBursts::8             1801                       # Per bank write bursts
system.mem_ctrls0.perBankRdBursts::9             1868                       # Per bank write bursts
system.mem_ctrls0.perBankRdBursts::10            2274                       # Per bank write bursts
system.mem_ctrls0.perBankRdBursts::11            2249                       # Per bank write bursts
system.mem_ctrls0.perBankRdBursts::12            2145                       # Per bank write bursts
system.mem_ctrls0.perBankRdBursts::13            2525                       # Per bank write bursts
system.mem_ctrls0.perBankRdBursts::14            2443                       # Per bank write bursts
system.mem_ctrls0.perBankRdBursts::15            2124                       # Per bank write bursts
system.mem_ctrls0.perBankWrBursts::0                0                       # Per bank write bursts
system.mem_ctrls0.perBankWrBursts::1                0                       # Per bank write bursts
system.mem_ctrls0.perBankWrBursts::2                0                       # Per bank write bursts
system.mem_ctrls0.perBankWrBursts::3                0                       # Per bank write bursts
system.mem_ctrls0.perBankWrBursts::4                0                       # Per bank write bursts
system.mem_ctrls0.perBankWrBursts::5                0                       # Per bank write bursts
system.mem_ctrls0.perBankWrBursts::6                0                       # Per bank write bursts
system.mem_ctrls0.perBankWrBursts::7                0                       # Per bank write bursts
system.mem_ctrls0.perBankWrBursts::8                0                       # Per bank write bursts
system.mem_ctrls0.perBankWrBursts::9                0                       # Per bank write bursts
system.mem_ctrls0.perBankWrBursts::10               0                       # Per bank write bursts
system.mem_ctrls0.perBankWrBursts::11               0                       # Per bank write bursts
system.mem_ctrls0.perBankWrBursts::12               0                       # Per bank write bursts
system.mem_ctrls0.perBankWrBursts::13               0                       # Per bank write bursts
system.mem_ctrls0.perBankWrBursts::14               0                       # Per bank write bursts
system.mem_ctrls0.perBankWrBursts::15               0                       # Per bank write bursts
system.mem_ctrls0.numRdRetry                        0                       # Number of times read queue was full causing retry
system.mem_ctrls0.numWrRetry                        0                       # Number of times write queue was full causing retry
system.mem_ctrls0.totGap                  14449851500                       # Total gap between requests
system.mem_ctrls0.readPktSize::0                    0                       # Read request sizes (log2)
system.mem_ctrls0.readPktSize::1                    0                       # Read request sizes (log2)
system.mem_ctrls0.readPktSize::2                    0                       # Read request sizes (log2)
system.mem_ctrls0.readPktSize::3                    0                       # Read request sizes (log2)
system.mem_ctrls0.readPktSize::4                    0                       # Read request sizes (log2)
system.mem_ctrls0.readPktSize::5                    0                       # Read request sizes (log2)
system.mem_ctrls0.readPktSize::6                34568                       # Read request sizes (log2)
system.mem_ctrls0.writePktSize::0                   0                       # Write request sizes (log2)
system.mem_ctrls0.writePktSize::1                   0                       # Write request sizes (log2)
system.mem_ctrls0.writePktSize::2                   0                       # Write request sizes (log2)
system.mem_ctrls0.writePktSize::3                   0                       # Write request sizes (log2)
system.mem_ctrls0.writePktSize::4                   0                       # Write request sizes (log2)
system.mem_ctrls0.writePktSize::5                   0                       # Write request sizes (log2)
system.mem_ctrls0.writePktSize::6                   9                       # Write request sizes (log2)
system.mem_ctrls0.rdQLenPdf::0                  24862                       # What read queue length does an incoming req see
system.mem_ctrls0.rdQLenPdf::1                   5741                       # What read queue length does an incoming req see
system.mem_ctrls0.rdQLenPdf::2                   2126                       # What read queue length does an incoming req see
system.mem_ctrls0.rdQLenPdf::3                    998                       # What read queue length does an incoming req see
system.mem_ctrls0.rdQLenPdf::4                    458                       # What read queue length does an incoming req see
system.mem_ctrls0.rdQLenPdf::5                    163                       # What read queue length does an incoming req see
system.mem_ctrls0.rdQLenPdf::6                     82                       # What read queue length does an incoming req see
system.mem_ctrls0.rdQLenPdf::7                     43                       # What read queue length does an incoming req see
system.mem_ctrls0.rdQLenPdf::8                     23                       # What read queue length does an incoming req see
system.mem_ctrls0.rdQLenPdf::9                     19                       # What read queue length does an incoming req see
system.mem_ctrls0.rdQLenPdf::10                    18                       # What read queue length does an incoming req see
system.mem_ctrls0.rdQLenPdf::11                    17                       # What read queue length does an incoming req see
system.mem_ctrls0.rdQLenPdf::12                    16                       # What read queue length does an incoming req see
system.mem_ctrls0.rdQLenPdf::13                     1                       # What read queue length does an incoming req see
system.mem_ctrls0.rdQLenPdf::14                     0                       # What read queue length does an incoming req see
system.mem_ctrls0.rdQLenPdf::15                     0                       # What read queue length does an incoming req see
system.mem_ctrls0.rdQLenPdf::16                     0                       # What read queue length does an incoming req see
system.mem_ctrls0.rdQLenPdf::17                     0                       # What read queue length does an incoming req see
system.mem_ctrls0.rdQLenPdf::18                     0                       # What read queue length does an incoming req see
system.mem_ctrls0.rdQLenPdf::19                     0                       # What read queue length does an incoming req see
system.mem_ctrls0.rdQLenPdf::20                     0                       # What read queue length does an incoming req see
system.mem_ctrls0.rdQLenPdf::21                     0                       # What read queue length does an incoming req see
system.mem_ctrls0.rdQLenPdf::22                     0                       # What read queue length does an incoming req see
system.mem_ctrls0.rdQLenPdf::23                     0                       # What read queue length does an incoming req see
system.mem_ctrls0.rdQLenPdf::24                     0                       # What read queue length does an incoming req see
system.mem_ctrls0.rdQLenPdf::25                     0                       # What read queue length does an incoming req see
system.mem_ctrls0.rdQLenPdf::26                     0                       # What read queue length does an incoming req see
system.mem_ctrls0.rdQLenPdf::27                     0                       # What read queue length does an incoming req see
system.mem_ctrls0.rdQLenPdf::28                     0                       # What read queue length does an incoming req see
system.mem_ctrls0.rdQLenPdf::29                     0                       # What read queue length does an incoming req see
system.mem_ctrls0.rdQLenPdf::30                     0                       # What read queue length does an incoming req see
system.mem_ctrls0.rdQLenPdf::31                     0                       # What read queue length does an incoming req see
system.mem_ctrls0.wrQLenPdf::0                      1                       # What write queue length does an incoming req see
system.mem_ctrls0.wrQLenPdf::1                      1                       # What write queue length does an incoming req see
system.mem_ctrls0.wrQLenPdf::2                      1                       # What write queue length does an incoming req see
system.mem_ctrls0.wrQLenPdf::3                      1                       # What write queue length does an incoming req see
system.mem_ctrls0.wrQLenPdf::4                      1                       # What write queue length does an incoming req see
system.mem_ctrls0.wrQLenPdf::5                      1                       # What write queue length does an incoming req see
system.mem_ctrls0.wrQLenPdf::6                      1                       # What write queue length does an incoming req see
system.mem_ctrls0.wrQLenPdf::7                      1                       # What write queue length does an incoming req see
system.mem_ctrls0.wrQLenPdf::8                      1                       # What write queue length does an incoming req see
system.mem_ctrls0.wrQLenPdf::9                      0                       # What write queue length does an incoming req see
system.mem_ctrls0.wrQLenPdf::10                     0                       # What write queue length does an incoming req see
system.mem_ctrls0.wrQLenPdf::11                     0                       # What write queue length does an incoming req see
system.mem_ctrls0.wrQLenPdf::12                     0                       # What write queue length does an incoming req see
system.mem_ctrls0.wrQLenPdf::13                     0                       # What write queue length does an incoming req see
system.mem_ctrls0.wrQLenPdf::14                     0                       # What write queue length does an incoming req see
system.mem_ctrls0.wrQLenPdf::15                     0                       # What write queue length does an incoming req see
system.mem_ctrls0.wrQLenPdf::16                     0                       # What write queue length does an incoming req see
system.mem_ctrls0.wrQLenPdf::17                     0                       # What write queue length does an incoming req see
system.mem_ctrls0.wrQLenPdf::18                     0                       # What write queue length does an incoming req see
system.mem_ctrls0.wrQLenPdf::19                     0                       # What write queue length does an incoming req see
system.mem_ctrls0.wrQLenPdf::20                     0                       # What write queue length does an incoming req see
system.mem_ctrls0.wrQLenPdf::21                     0                       # What write queue length does an incoming req see
system.mem_ctrls0.wrQLenPdf::22                     0                       # What write queue length does an incoming req see
system.mem_ctrls0.wrQLenPdf::23                     0                       # What write queue length does an incoming req see
system.mem_ctrls0.wrQLenPdf::24                     0                       # What write queue length does an incoming req see
system.mem_ctrls0.wrQLenPdf::25                     0                       # What write queue length does an incoming req see
system.mem_ctrls0.wrQLenPdf::26                     0                       # What write queue length does an incoming req see
system.mem_ctrls0.wrQLenPdf::27                     0                       # What write queue length does an incoming req see
system.mem_ctrls0.wrQLenPdf::28                     0                       # What write queue length does an incoming req see
system.mem_ctrls0.wrQLenPdf::29                     0                       # What write queue length does an incoming req see
system.mem_ctrls0.wrQLenPdf::30                     0                       # What write queue length does an incoming req see
system.mem_ctrls0.wrQLenPdf::31                     0                       # What write queue length does an incoming req see
system.mem_ctrls0.wrQLenPdf::32                     0                       # What write queue length does an incoming req see
system.mem_ctrls0.wrQLenPdf::33                     0                       # What write queue length does an incoming req see
system.mem_ctrls0.wrQLenPdf::34                     0                       # What write queue length does an incoming req see
system.mem_ctrls0.wrQLenPdf::35                     0                       # What write queue length does an incoming req see
system.mem_ctrls0.wrQLenPdf::36                     0                       # What write queue length does an incoming req see
system.mem_ctrls0.wrQLenPdf::37                     0                       # What write queue length does an incoming req see
system.mem_ctrls0.wrQLenPdf::38                     0                       # What write queue length does an incoming req see
system.mem_ctrls0.wrQLenPdf::39                     0                       # What write queue length does an incoming req see
system.mem_ctrls0.wrQLenPdf::40                     0                       # What write queue length does an incoming req see
system.mem_ctrls0.wrQLenPdf::41                     0                       # What write queue length does an incoming req see
system.mem_ctrls0.wrQLenPdf::42                     0                       # What write queue length does an incoming req see
system.mem_ctrls0.wrQLenPdf::43                     0                       # What write queue length does an incoming req see
system.mem_ctrls0.wrQLenPdf::44                     0                       # What write queue length does an incoming req see
system.mem_ctrls0.wrQLenPdf::45                     0                       # What write queue length does an incoming req see
system.mem_ctrls0.wrQLenPdf::46                     0                       # What write queue length does an incoming req see
system.mem_ctrls0.wrQLenPdf::47                     0                       # What write queue length does an incoming req see
system.mem_ctrls0.wrQLenPdf::48                     0                       # What write queue length does an incoming req see
system.mem_ctrls0.wrQLenPdf::49                     0                       # What write queue length does an incoming req see
system.mem_ctrls0.wrQLenPdf::50                     0                       # What write queue length does an incoming req see
system.mem_ctrls0.wrQLenPdf::51                     0                       # What write queue length does an incoming req see
system.mem_ctrls0.wrQLenPdf::52                     0                       # What write queue length does an incoming req see
system.mem_ctrls0.wrQLenPdf::53                     0                       # What write queue length does an incoming req see
system.mem_ctrls0.wrQLenPdf::54                     0                       # What write queue length does an incoming req see
system.mem_ctrls0.wrQLenPdf::55                     0                       # What write queue length does an incoming req see
system.mem_ctrls0.wrQLenPdf::56                     0                       # What write queue length does an incoming req see
system.mem_ctrls0.wrQLenPdf::57                     0                       # What write queue length does an incoming req see
system.mem_ctrls0.wrQLenPdf::58                     0                       # What write queue length does an incoming req see
system.mem_ctrls0.wrQLenPdf::59                     0                       # What write queue length does an incoming req see
system.mem_ctrls0.wrQLenPdf::60                     0                       # What write queue length does an incoming req see
system.mem_ctrls0.wrQLenPdf::61                     0                       # What write queue length does an incoming req see
system.mem_ctrls0.wrQLenPdf::62                     0                       # What write queue length does an incoming req see
system.mem_ctrls0.wrQLenPdf::63                     0                       # What write queue length does an incoming req see
system.mem_ctrls0.bytesPerActivate::samples        21754                       # Bytes accessed per row activation
system.mem_ctrls0.bytesPerActivate::mean   101.678036                       # Bytes accessed per row activation
system.mem_ctrls0.bytesPerActivate::gmean    78.917486                       # Bytes accessed per row activation
system.mem_ctrls0.bytesPerActivate::stdev   116.283127                       # Bytes accessed per row activation
system.mem_ctrls0.bytesPerActivate::0-127        18465     84.88%     84.88% # Bytes accessed per row activation
system.mem_ctrls0.bytesPerActivate::128-255         1581      7.27%     92.15% # Bytes accessed per row activation
system.mem_ctrls0.bytesPerActivate::256-383          412      1.89%     94.04% # Bytes accessed per row activation
system.mem_ctrls0.bytesPerActivate::384-511          196      0.90%     94.94% # Bytes accessed per row activation
system.mem_ctrls0.bytesPerActivate::512-639          999      4.59%     99.54% # Bytes accessed per row activation
system.mem_ctrls0.bytesPerActivate::640-767           86      0.40%     99.93% # Bytes accessed per row activation
system.mem_ctrls0.bytesPerActivate::768-895            5      0.02%     99.95% # Bytes accessed per row activation
system.mem_ctrls0.bytesPerActivate::896-1023            2      0.01%     99.96% # Bytes accessed per row activation
system.mem_ctrls0.bytesPerActivate::1024-1151            8      0.04%    100.00% # Bytes accessed per row activation
system.mem_ctrls0.bytesPerActivate::total        21754                       # Bytes accessed per row activation
system.mem_ctrls0.totQLat                  1112031750                       # Total ticks spent queuing
system.mem_ctrls0.totMemAccLat             1760163000                       # Total ticks spent from burst creation until serviced by the DRAM
system.mem_ctrls0.totBusLat                 172835000                       # Total ticks spent in databus transfers
system.mem_ctrls0.avgQLat                    32170.33                       # Average queueing delay per DRAM burst
system.mem_ctrls0.avgBusLat                   5000.00                       # Average bus latency per DRAM burst
system.mem_ctrls0.avgMemAccLat               50920.33                       # Average memory access latency per DRAM burst
system.mem_ctrls0.avgRdBW                      153.09                       # Average DRAM read bandwidth in MiByte/s
system.mem_ctrls0.avgWrBW                        0.00                       # Average achieved write bandwidth in MiByte/s
system.mem_ctrls0.avgRdBWSys                   153.09                       # Average system read bandwidth in MiByte/s
system.mem_ctrls0.avgWrBWSys                     0.04                       # Average system write bandwidth in MiByte/s
system.mem_ctrls0.peakBW                     12800.00                       # Theoretical peak bandwidth in MiByte/s
system.mem_ctrls0.busUtil                        1.20                       # Data bus utilization in percentage
system.mem_ctrls0.busUtilRead                    1.20                       # Data bus utilization in percentage for reads
system.mem_ctrls0.busUtilWrite                   0.00                       # Data bus utilization in percentage for writes
system.mem_ctrls0.avgRdQLen                      1.48                       # Average read queue length when enqueuing
system.mem_ctrls0.avgWrQLen                      2.21                       # Average write queue length when enqueuing
system.mem_ctrls0.readRowHits                   12809                       # Number of row buffer hits during reads
system.mem_ctrls0.writeRowHits                      0                       # Number of row buffer hits during writes
system.mem_ctrls0.readRowHitRate                37.06                       # Row buffer hit rate for reads
system.mem_ctrls0.writeRowHitRate                0.00                       # Row buffer hit rate for writes
system.mem_ctrls0.avgGap                    417903.56                       # Average gap between requests
system.mem_ctrls0.pageHitRate                   37.05                       # Row buffer hit rate, read and write combined
system.mem_ctrls0_0.actEnergy                79553880                       # Energy for activate commands per rank (pJ)
system.mem_ctrls0_0.preEnergy                42268710                       # Energy for precharge commands per rank (pJ)
system.mem_ctrls0_0.readEnergy              122365320                       # Energy for read commands per rank (pJ)
system.mem_ctrls0_0.writeEnergy                     0                       # Energy for write commands per rank (pJ)
system.mem_ctrls0_0.refreshEnergy        955150560.000000                       # Energy for refresh commands per rank (pJ)
system.mem_ctrls0_0.actBackEnergy           432904170                       # Energy for active background per rank (pJ)
system.mem_ctrls0_0.preBackEnergy            32714880                       # Energy for precharge background per rank (pJ)
system.mem_ctrls0_0.actPowerDownEnergy     4078590540                       # Energy for active power-down per rank (pJ)
system.mem_ctrls0_0.prePowerDownEnergy      596616000                       # Energy for precharge power-down per rank (pJ)
system.mem_ctrls0_0.selfRefreshEnergy       744154275                       # Energy for self refresh per rank (pJ)
system.mem_ctrls0_0.totalEnergy            7084467555                       # Total energy per rank (pJ)
system.mem_ctrls0_0.averagePower           490.240305                       # Core power per rank (mW)
system.mem_ctrls0_0.totalIdleTime         13414929750                       # Total Idle time Per DRAM Rank
system.mem_ctrls0_0.memoryStateTime::IDLE     29145250                       # Time in different power states
system.mem_ctrls0_0.memoryStateTime::REF    404526000                       # Time in different power states
system.mem_ctrls0_0.memoryStateTime::SREF   2918165750                       # Time in different power states
system.mem_ctrls0_0.memoryStateTime::PRE_PDN   1553542000                       # Time in different power states
system.mem_ctrls0_0.memoryStateTime::ACT    601383500                       # Time in different power states
system.mem_ctrls0_0.memoryStateTime::ACT_PDN   8944247000                       # Time in different power states
system.mem_ctrls0_1.actEnergy                75798240                       # Energy for activate commands per rank (pJ)
system.mem_ctrls0_1.preEnergy                40287720                       # Energy for precharge commands per rank (pJ)
system.mem_ctrls0_1.readEnergy              124443060                       # Energy for read commands per rank (pJ)
system.mem_ctrls0_1.writeEnergy                     0                       # Energy for write commands per rank (pJ)
system.mem_ctrls0_1.refreshEnergy        943472400.000000                       # Energy for refresh commands per rank (pJ)
system.mem_ctrls0_1.actBackEnergy           429929910                       # Energy for active background per rank (pJ)
system.mem_ctrls0_1.preBackEnergy            28393920                       # Energy for precharge background per rank (pJ)
system.mem_ctrls0_1.actPowerDownEnergy     4000844250                       # Energy for active power-down per rank (pJ)
system.mem_ctrls0_1.prePowerDownEnergy      590600640                       # Energy for precharge power-down per rank (pJ)
system.mem_ctrls0_1.selfRefreshEnergy       797052270                       # Energy for self refresh per rank (pJ)
system.mem_ctrls0_1.totalEnergy            7031217750                       # Total energy per rank (pJ)
system.mem_ctrls0_1.averagePower           486.555455                       # Core power per rank (mW)
system.mem_ctrls0_1.totalIdleTime         13432659000                       # Total Idle time Per DRAM Rank
system.mem_ctrls0_1.memoryStateTime::IDLE     30845500                       # Time in different power states
system.mem_ctrls0_1.memoryStateTime::REF    399634000                       # Time in different power states
system.mem_ctrls0_1.memoryStateTime::SREF   3121550750                       # Time in different power states
system.mem_ctrls0_1.memoryStateTime::PRE_PDN   1537968250                       # Time in different power states
system.mem_ctrls0_1.memoryStateTime::ACT    587064250                       # Time in different power states
system.mem_ctrls0_1.memoryStateTime::ACT_PDN   8773946750                       # Time in different power states
system.mem_ctrls1.pwrStateResidencyTicks::UNDEFINED  14451009500                       # Cumulative time (in ticks) in various power states
system.mem_ctrls1.bytes_read::ruby.dir_cntrl1      2176448                       # Number of bytes read from this memory
system.mem_ctrls1.bytes_read::total           2176448                       # Number of bytes read from this memory
system.mem_ctrls1.bytes_written::ruby.dir_cntrl1          832                       # Number of bytes written to this memory
system.mem_ctrls1.bytes_written::total            832                       # Number of bytes written to this memory
system.mem_ctrls1.num_reads::ruby.dir_cntrl1        34007                       # Number of read requests responded to by this memory
system.mem_ctrls1.num_reads::total              34007                       # Number of read requests responded to by this memory
system.mem_ctrls1.num_writes::ruby.dir_cntrl1           13                       # Number of write requests responded to by this memory
system.mem_ctrls1.num_writes::total                13                       # Number of write requests responded to by this memory
system.mem_ctrls1.bw_read::ruby.dir_cntrl1    150608717                       # Total read bandwidth from this memory (bytes/s)
system.mem_ctrls1.bw_read::total            150608717                       # Total read bandwidth from this memory (bytes/s)
system.mem_ctrls1.bw_write::ruby.dir_cntrl1        57574                       # Write bandwidth from this memory (bytes/s)
system.mem_ctrls1.bw_write::total               57574                       # Write bandwidth from this memory (bytes/s)
system.mem_ctrls1.bw_total::ruby.dir_cntrl1    150666291                       # Total bandwidth to/from this memory (bytes/s)
system.mem_ctrls1.bw_total::total           150666291                       # Total bandwidth to/from this memory (bytes/s)
system.mem_ctrls1.readReqs                      34007                       # Number of read requests accepted
system.mem_ctrls1.writeReqs                        13                       # Number of write requests accepted
system.mem_ctrls1.readBursts                    34007                       # Number of DRAM read bursts, including those serviced by the write queue
system.mem_ctrls1.writeBursts                      13                       # Number of DRAM write bursts, including those merged in the write queue
system.mem_ctrls1.bytesReadDRAM               2176448                       # Total number of bytes read from DRAM
system.mem_ctrls1.bytesReadWrQ                      0                       # Total number of bytes read from write queue
system.mem_ctrls1.bytesWritten                      0                       # Total number of bytes written to DRAM
system.mem_ctrls1.bytesReadSys                2176448                       # Total read bytes from the system interface side
system.mem_ctrls1.bytesWrittenSys                 832                       # Total written bytes from the system interface side
system.mem_ctrls1.servicedByWrQ                     0                       # Number of DRAM read bursts serviced by the write queue
system.mem_ctrls1.mergedWrBursts                    0                       # Number of DRAM write bursts merged with an existing one
system.mem_ctrls1.neitherReadNorWriteReqs            0                       # Number of requests that are neither read nor write
system.mem_ctrls1.perBankRdBursts::0             2011                       # Per bank write bursts
system.mem_ctrls1.perBankRdBursts::1             1907                       # Per bank write bursts
system.mem_ctrls1.perBankRdBursts::2             2115                       # Per bank write bursts
system.mem_ctrls1.perBankRdBursts::3             2200                       # Per bank write bursts
system.mem_ctrls1.perBankRdBursts::4             1953                       # Per bank write bursts
system.mem_ctrls1.perBankRdBursts::5             2260                       # Per bank write bursts
system.mem_ctrls1.perBankRdBursts::6             2452                       # Per bank write bursts
system.mem_ctrls1.perBankRdBursts::7             1959                       # Per bank write bursts
system.mem_ctrls1.perBankRdBursts::8             1766                       # Per bank write bursts
system.mem_ctrls1.perBankRdBursts::9             1843                       # Per bank write bursts
system.mem_ctrls1.perBankRdBursts::10            2258                       # Per bank write bursts
system.mem_ctrls1.perBankRdBursts::11            2236                       # Per bank write bursts
system.mem_ctrls1.perBankRdBursts::12            2091                       # Per bank write bursts
system.mem_ctrls1.perBankRdBursts::13            2480                       # Per bank write bursts
system.mem_ctrls1.perBankRdBursts::14            2406                       # Per bank write bursts
system.mem_ctrls1.perBankRdBursts::15            2070                       # Per bank write bursts
system.mem_ctrls1.perBankWrBursts::0                0                       # Per bank write bursts
system.mem_ctrls1.perBankWrBursts::1                0                       # Per bank write bursts
system.mem_ctrls1.perBankWrBursts::2                0                       # Per bank write bursts
system.mem_ctrls1.perBankWrBursts::3                0                       # Per bank write bursts
system.mem_ctrls1.perBankWrBursts::4                0                       # Per bank write bursts
system.mem_ctrls1.perBankWrBursts::5                0                       # Per bank write bursts
system.mem_ctrls1.perBankWrBursts::6                0                       # Per bank write bursts
system.mem_ctrls1.perBankWrBursts::7                0                       # Per bank write bursts
system.mem_ctrls1.perBankWrBursts::8                0                       # Per bank write bursts
system.mem_ctrls1.perBankWrBursts::9                0                       # Per bank write bursts
system.mem_ctrls1.perBankWrBursts::10               0                       # Per bank write bursts
system.mem_ctrls1.perBankWrBursts::11               0                       # Per bank write bursts
system.mem_ctrls1.perBankWrBursts::12               0                       # Per bank write bursts
system.mem_ctrls1.perBankWrBursts::13               0                       # Per bank write bursts
system.mem_ctrls1.perBankWrBursts::14               0                       # Per bank write bursts
system.mem_ctrls1.perBankWrBursts::15               0                       # Per bank write bursts
system.mem_ctrls1.numRdRetry                        0                       # Number of times read queue was full causing retry
system.mem_ctrls1.numWrRetry                        0                       # Number of times write queue was full causing retry
system.mem_ctrls1.totGap                  14450197000                       # Total gap between requests
system.mem_ctrls1.readPktSize::0                    0                       # Read request sizes (log2)
system.mem_ctrls1.readPktSize::1                    0                       # Read request sizes (log2)
system.mem_ctrls1.readPktSize::2                    0                       # Read request sizes (log2)
system.mem_ctrls1.readPktSize::3                    0                       # Read request sizes (log2)
system.mem_ctrls1.readPktSize::4                    0                       # Read request sizes (log2)
system.mem_ctrls1.readPktSize::5                    0                       # Read request sizes (log2)
system.mem_ctrls1.readPktSize::6                34007                       # Read request sizes (log2)
system.mem_ctrls1.writePktSize::0                   0                       # Write request sizes (log2)
system.mem_ctrls1.writePktSize::1                   0                       # Write request sizes (log2)
system.mem_ctrls1.writePktSize::2                   0                       # Write request sizes (log2)
system.mem_ctrls1.writePktSize::3                   0                       # Write request sizes (log2)
system.mem_ctrls1.writePktSize::4                   0                       # Write request sizes (log2)
system.mem_ctrls1.writePktSize::5                   0                       # Write request sizes (log2)
system.mem_ctrls1.writePktSize::6                  13                       # Write request sizes (log2)
system.mem_ctrls1.rdQLenPdf::0                  24695                       # What read queue length does an incoming req see
system.mem_ctrls1.rdQLenPdf::1                   5628                       # What read queue length does an incoming req see
system.mem_ctrls1.rdQLenPdf::2                   2053                       # What read queue length does an incoming req see
system.mem_ctrls1.rdQLenPdf::3                    885                       # What read queue length does an incoming req see
system.mem_ctrls1.rdQLenPdf::4                    395                       # What read queue length does an incoming req see
system.mem_ctrls1.rdQLenPdf::5                    137                       # What read queue length does an incoming req see
system.mem_ctrls1.rdQLenPdf::6                     77                       # What read queue length does an incoming req see
system.mem_ctrls1.rdQLenPdf::7                     43                       # What read queue length does an incoming req see
system.mem_ctrls1.rdQLenPdf::8                     25                       # What read queue length does an incoming req see
system.mem_ctrls1.rdQLenPdf::9                     18                       # What read queue length does an incoming req see
system.mem_ctrls1.rdQLenPdf::10                    18                       # What read queue length does an incoming req see
system.mem_ctrls1.rdQLenPdf::11                    17                       # What read queue length does an incoming req see
system.mem_ctrls1.rdQLenPdf::12                    16                       # What read queue length does an incoming req see
system.mem_ctrls1.rdQLenPdf::13                     0                       # What read queue length does an incoming req see
system.mem_ctrls1.rdQLenPdf::14                     0                       # What read queue length does an incoming req see
system.mem_ctrls1.rdQLenPdf::15                     0                       # What read queue length does an incoming req see
system.mem_ctrls1.rdQLenPdf::16                     0                       # What read queue length does an incoming req see
system.mem_ctrls1.rdQLenPdf::17                     0                       # What read queue length does an incoming req see
system.mem_ctrls1.rdQLenPdf::18                     0                       # What read queue length does an incoming req see
system.mem_ctrls1.rdQLenPdf::19                     0                       # What read queue length does an incoming req see
system.mem_ctrls1.rdQLenPdf::20                     0                       # What read queue length does an incoming req see
system.mem_ctrls1.rdQLenPdf::21                     0                       # What read queue length does an incoming req see
system.mem_ctrls1.rdQLenPdf::22                     0                       # What read queue length does an incoming req see
system.mem_ctrls1.rdQLenPdf::23                     0                       # What read queue length does an incoming req see
system.mem_ctrls1.rdQLenPdf::24                     0                       # What read queue length does an incoming req see
system.mem_ctrls1.rdQLenPdf::25                     0                       # What read queue length does an incoming req see
system.mem_ctrls1.rdQLenPdf::26                     0                       # What read queue length does an incoming req see
system.mem_ctrls1.rdQLenPdf::27                     0                       # What read queue length does an incoming req see
system.mem_ctrls1.rdQLenPdf::28                     0                       # What read queue length does an incoming req see
system.mem_ctrls1.rdQLenPdf::29                     0                       # What read queue length does an incoming req see
system.mem_ctrls1.rdQLenPdf::30                     0                       # What read queue length does an incoming req see
system.mem_ctrls1.rdQLenPdf::31                     0                       # What read queue length does an incoming req see
system.mem_ctrls1.wrQLenPdf::0                      1                       # What write queue length does an incoming req see
system.mem_ctrls1.wrQLenPdf::1                      1                       # What write queue length does an incoming req see
system.mem_ctrls1.wrQLenPdf::2                      1                       # What write queue length does an incoming req see
system.mem_ctrls1.wrQLenPdf::3                      1                       # What write queue length does an incoming req see
system.mem_ctrls1.wrQLenPdf::4                      1                       # What write queue length does an incoming req see
system.mem_ctrls1.wrQLenPdf::5                      1                       # What write queue length does an incoming req see
system.mem_ctrls1.wrQLenPdf::6                      1                       # What write queue length does an incoming req see
system.mem_ctrls1.wrQLenPdf::7                      1                       # What write queue length does an incoming req see
system.mem_ctrls1.wrQLenPdf::8                      1                       # What write queue length does an incoming req see
system.mem_ctrls1.wrQLenPdf::9                      1                       # What write queue length does an incoming req see
system.mem_ctrls1.wrQLenPdf::10                     1                       # What write queue length does an incoming req see
system.mem_ctrls1.wrQLenPdf::11                     1                       # What write queue length does an incoming req see
system.mem_ctrls1.wrQLenPdf::12                     1                       # What write queue length does an incoming req see
system.mem_ctrls1.wrQLenPdf::13                     0                       # What write queue length does an incoming req see
system.mem_ctrls1.wrQLenPdf::14                     0                       # What write queue length does an incoming req see
system.mem_ctrls1.wrQLenPdf::15                     0                       # What write queue length does an incoming req see
system.mem_ctrls1.wrQLenPdf::16                     0                       # What write queue length does an incoming req see
system.mem_ctrls1.wrQLenPdf::17                     0                       # What write queue length does an incoming req see
system.mem_ctrls1.wrQLenPdf::18                     0                       # What write queue length does an incoming req see
system.mem_ctrls1.wrQLenPdf::19                     0                       # What write queue length does an incoming req see
system.mem_ctrls1.wrQLenPdf::20                     0                       # What write queue length does an incoming req see
system.mem_ctrls1.wrQLenPdf::21                     0                       # What write queue length does an incoming req see
system.mem_ctrls1.wrQLenPdf::22                     0                       # What write queue length does an incoming req see
system.mem_ctrls1.wrQLenPdf::23                     0                       # What write queue length does an incoming req see
system.mem_ctrls1.wrQLenPdf::24                     0                       # What write queue length does an incoming req see
system.mem_ctrls1.wrQLenPdf::25                     0                       # What write queue length does an incoming req see
system.mem_ctrls1.wrQLenPdf::26                     0                       # What write queue length does an incoming req see
system.mem_ctrls1.wrQLenPdf::27                     0                       # What write queue length does an incoming req see
system.mem_ctrls1.wrQLenPdf::28                     0                       # What write queue length does an incoming req see
system.mem_ctrls1.wrQLenPdf::29                     0                       # What write queue length does an incoming req see
system.mem_ctrls1.wrQLenPdf::30                     0                       # What write queue length does an incoming req see
system.mem_ctrls1.wrQLenPdf::31                     0                       # What write queue length does an incoming req see
system.mem_ctrls1.wrQLenPdf::32                     0                       # What write queue length does an incoming req see
system.mem_ctrls1.wrQLenPdf::33                     0                       # What write queue length does an incoming req see
system.mem_ctrls1.wrQLenPdf::34                     0                       # What write queue length does an incoming req see
system.mem_ctrls1.wrQLenPdf::35                     0                       # What write queue length does an incoming req see
system.mem_ctrls1.wrQLenPdf::36                     0                       # What write queue length does an incoming req see
system.mem_ctrls1.wrQLenPdf::37                     0                       # What write queue length does an incoming req see
system.mem_ctrls1.wrQLenPdf::38                     0                       # What write queue length does an incoming req see
system.mem_ctrls1.wrQLenPdf::39                     0                       # What write queue length does an incoming req see
system.mem_ctrls1.wrQLenPdf::40                     0                       # What write queue length does an incoming req see
system.mem_ctrls1.wrQLenPdf::41                     0                       # What write queue length does an incoming req see
system.mem_ctrls1.wrQLenPdf::42                     0                       # What write queue length does an incoming req see
system.mem_ctrls1.wrQLenPdf::43                     0                       # What write queue length does an incoming req see
system.mem_ctrls1.wrQLenPdf::44                     0                       # What write queue length does an incoming req see
system.mem_ctrls1.wrQLenPdf::45                     0                       # What write queue length does an incoming req see
system.mem_ctrls1.wrQLenPdf::46                     0                       # What write queue length does an incoming req see
system.mem_ctrls1.wrQLenPdf::47                     0                       # What write queue length does an incoming req see
system.mem_ctrls1.wrQLenPdf::48                     0                       # What write queue length does an incoming req see
system.mem_ctrls1.wrQLenPdf::49                     0                       # What write queue length does an incoming req see
system.mem_ctrls1.wrQLenPdf::50                     0                       # What write queue length does an incoming req see
system.mem_ctrls1.wrQLenPdf::51                     0                       # What write queue length does an incoming req see
system.mem_ctrls1.wrQLenPdf::52                     0                       # What write queue length does an incoming req see
system.mem_ctrls1.wrQLenPdf::53                     0                       # What write queue length does an incoming req see
system.mem_ctrls1.wrQLenPdf::54                     0                       # What write queue length does an incoming req see
system.mem_ctrls1.wrQLenPdf::55                     0                       # What write queue length does an incoming req see
system.mem_ctrls1.wrQLenPdf::56                     0                       # What write queue length does an incoming req see
system.mem_ctrls1.wrQLenPdf::57                     0                       # What write queue length does an incoming req see
system.mem_ctrls1.wrQLenPdf::58                     0                       # What write queue length does an incoming req see
system.mem_ctrls1.wrQLenPdf::59                     0                       # What write queue length does an incoming req see
system.mem_ctrls1.wrQLenPdf::60                     0                       # What write queue length does an incoming req see
system.mem_ctrls1.wrQLenPdf::61                     0                       # What write queue length does an incoming req see
system.mem_ctrls1.wrQLenPdf::62                     0                       # What write queue length does an incoming req see
system.mem_ctrls1.wrQLenPdf::63                     0                       # What write queue length does an incoming req see
system.mem_ctrls1.bytesPerActivate::samples        21335                       # Bytes accessed per row activation
system.mem_ctrls1.bytesPerActivate::mean   102.007031                       # Bytes accessed per row activation
system.mem_ctrls1.bytesPerActivate::gmean    79.040580                       # Bytes accessed per row activation
system.mem_ctrls1.bytesPerActivate::stdev   116.895499                       # Bytes accessed per row activation
system.mem_ctrls1.bytesPerActivate::0-127        18093     84.80%     84.80% # Bytes accessed per row activation
system.mem_ctrls1.bytesPerActivate::128-255         1542      7.23%     92.03% # Bytes accessed per row activation
system.mem_ctrls1.bytesPerActivate::256-383          427      2.00%     94.03% # Bytes accessed per row activation
system.mem_ctrls1.bytesPerActivate::384-511          172      0.81%     94.84% # Bytes accessed per row activation
system.mem_ctrls1.bytesPerActivate::512-639         1006      4.72%     99.55% # Bytes accessed per row activation
system.mem_ctrls1.bytesPerActivate::640-767           79      0.37%     99.93% # Bytes accessed per row activation
system.mem_ctrls1.bytesPerActivate::768-895            6      0.03%     99.95% # Bytes accessed per row activation
system.mem_ctrls1.bytesPerActivate::896-1023            2      0.01%     99.96% # Bytes accessed per row activation
system.mem_ctrls1.bytesPerActivate::1024-1151            8      0.04%    100.00% # Bytes accessed per row activation
system.mem_ctrls1.bytesPerActivate::total        21335                       # Bytes accessed per row activation
system.mem_ctrls1.totQLat                  1071743500                       # Total ticks spent queuing
system.mem_ctrls1.totMemAccLat             1709374750                       # Total ticks spent from burst creation until serviced by the DRAM
system.mem_ctrls1.totBusLat                 170035000                       # Total ticks spent in databus transfers
system.mem_ctrls1.avgQLat                    31515.38                       # Average queueing delay per DRAM burst
system.mem_ctrls1.avgBusLat                   5000.00                       # Average bus latency per DRAM burst
system.mem_ctrls1.avgMemAccLat               50265.38                       # Average memory access latency per DRAM burst
system.mem_ctrls1.avgRdBW                      150.61                       # Average DRAM read bandwidth in MiByte/s
system.mem_ctrls1.avgWrBW                        0.00                       # Average achieved write bandwidth in MiByte/s
system.mem_ctrls1.avgRdBWSys                   150.61                       # Average system read bandwidth in MiByte/s
system.mem_ctrls1.avgWrBWSys                     0.06                       # Average system write bandwidth in MiByte/s
system.mem_ctrls1.peakBW                     12800.00                       # Theoretical peak bandwidth in MiByte/s
system.mem_ctrls1.busUtil                        1.18                       # Data bus utilization in percentage
system.mem_ctrls1.busUtilRead                    1.18                       # Data bus utilization in percentage for reads
system.mem_ctrls1.busUtilWrite                   0.00                       # Data bus utilization in percentage for writes
system.mem_ctrls1.avgRdQLen                      1.47                       # Average read queue length when enqueuing
system.mem_ctrls1.avgWrQLen                      2.59                       # Average write queue length when enqueuing
system.mem_ctrls1.readRowHits                   12670                       # Number of row buffer hits during reads
system.mem_ctrls1.writeRowHits                      0                       # Number of row buffer hits during writes
system.mem_ctrls1.readRowHitRate                37.26                       # Row buffer hit rate for reads
system.mem_ctrls1.writeRowHitRate                0.00                       # Row buffer hit rate for writes
system.mem_ctrls1.avgGap                    424755.94                       # Average gap between requests
system.mem_ctrls1.pageHitRate                   37.24                       # Row buffer hit rate, read and write combined
system.mem_ctrls1_0.actEnergy                77911680                       # Energy for activate commands per rank (pJ)
system.mem_ctrls1_0.preEnergy                41403450                       # Energy for precharge commands per rank (pJ)
system.mem_ctrls1_0.readEnergy              120358980                       # Energy for read commands per rank (pJ)
system.mem_ctrls1_0.writeEnergy                     0                       # Energy for write commands per rank (pJ)
system.mem_ctrls1_0.refreshEnergy        950848080.000000                       # Energy for refresh commands per rank (pJ)
system.mem_ctrls1_0.actBackEnergy           427514250                       # Energy for active background per rank (pJ)
system.mem_ctrls1_0.preBackEnergy            32161440                       # Energy for precharge background per rank (pJ)
system.mem_ctrls1_0.actPowerDownEnergy     4064847840                       # Energy for active power-down per rank (pJ)
system.mem_ctrls1_0.prePowerDownEnergy      615935040                       # Energy for precharge power-down per rank (pJ)
system.mem_ctrls1_0.selfRefreshEnergy       737496210                       # Energy for self refresh per rank (pJ)
system.mem_ctrls1_0.totalEnergy            7068683610                       # Total energy per rank (pJ)
system.mem_ctrls1_0.averagePower           489.148067                       # Core power per rank (mW)
system.mem_ctrls1_0.totalIdleTime         13428774500                       # Total Idle time Per DRAM Rank
system.mem_ctrls1_0.memoryStateTime::IDLE     27317250                       # Time in different power states
system.mem_ctrls1_0.memoryStateTime::REF    402664000                       # Time in different power states
system.mem_ctrls1_0.memoryStateTime::SREF   2911133500                       # Time in different power states
system.mem_ctrls1_0.memoryStateTime::PRE_PDN   1603892750                       # Time in different power states
system.mem_ctrls1_0.memoryStateTime::ACT    591883750                       # Time in different power states
system.mem_ctrls1_0.memoryStateTime::ACT_PDN   8914118250                       # Time in different power states
system.mem_ctrls1_1.actEnergy                74434500                       # Energy for activate commands per rank (pJ)
system.mem_ctrls1_1.preEnergy                39562875                       # Energy for precharge commands per rank (pJ)
system.mem_ctrls1_1.readEnergy              122451000                       # Energy for read commands per rank (pJ)
system.mem_ctrls1_1.writeEnergy                     0                       # Energy for write commands per rank (pJ)
system.mem_ctrls1_1.refreshEnergy        936096720.000000                       # Energy for refresh commands per rank (pJ)
system.mem_ctrls1_1.actBackEnergy           424662540                       # Energy for active background per rank (pJ)
system.mem_ctrls1_1.preBackEnergy            27104160                       # Energy for precharge background per rank (pJ)
system.mem_ctrls1_1.actPowerDownEnergy     4042021620                       # Energy for active power-down per rank (pJ)
system.mem_ctrls1_1.prePowerDownEnergy      570259680                       # Energy for precharge power-down per rank (pJ)
system.mem_ctrls1_1.selfRefreshEnergy       782718810                       # Energy for self refresh per rank (pJ)
system.mem_ctrls1_1.totalEnergy            7019406255                       # Total energy per rank (pJ)
system.mem_ctrls1_1.averagePower           485.738108                       # Core power per rank (mW)
system.mem_ctrls1_1.totalIdleTime         13446989750                       # Total Idle time Per DRAM Rank
system.mem_ctrls1_1.memoryStateTime::IDLE     27132000                       # Time in different power states
system.mem_ctrls1_1.memoryStateTime::REF    396418000                       # Time in different power states
system.mem_ctrls1_1.memoryStateTime::SREF   3099802250                       # Time in different power states
system.mem_ctrls1_1.memoryStateTime::PRE_PDN   1485052250                       # Time in different power states
system.mem_ctrls1_1.memoryStateTime::ACT    578341500                       # Time in different power states
system.mem_ctrls1_1.memoryStateTime::ACT_PDN   8864263500                       # Time in different power states
system.mem_ctrls2.pwrStateResidencyTicks::UNDEFINED  14451009500                       # Cumulative time (in ticks) in various power states
system.mem_ctrls2.bytes_read::ruby.dir_cntrl2      2186176                       # Number of bytes read from this memory
system.mem_ctrls2.bytes_read::total           2186176                       # Number of bytes read from this memory
system.mem_ctrls2.bytes_written::ruby.dir_cntrl2          256                       # Number of bytes written to this memory
system.mem_ctrls2.bytes_written::total            256                       # Number of bytes written to this memory
system.mem_ctrls2.num_reads::ruby.dir_cntrl2        34159                       # Number of read requests responded to by this memory
system.mem_ctrls2.num_reads::total              34159                       # Number of read requests responded to by this memory
system.mem_ctrls2.num_writes::ruby.dir_cntrl2            4                       # Number of write requests responded to by this memory
system.mem_ctrls2.num_writes::total                 4                       # Number of write requests responded to by this memory
system.mem_ctrls2.bw_read::ruby.dir_cntrl2    151281888                       # Total read bandwidth from this memory (bytes/s)
system.mem_ctrls2.bw_read::total            151281888                       # Total read bandwidth from this memory (bytes/s)
system.mem_ctrls2.bw_write::ruby.dir_cntrl2        17715                       # Write bandwidth from this memory (bytes/s)
system.mem_ctrls2.bw_write::total               17715                       # Write bandwidth from this memory (bytes/s)
system.mem_ctrls2.bw_total::ruby.dir_cntrl2    151299603                       # Total bandwidth to/from this memory (bytes/s)
system.mem_ctrls2.bw_total::total           151299603                       # Total bandwidth to/from this memory (bytes/s)
system.mem_ctrls2.readReqs                      34159                       # Number of read requests accepted
system.mem_ctrls2.writeReqs                         4                       # Number of write requests accepted
system.mem_ctrls2.readBursts                    34159                       # Number of DRAM read bursts, including those serviced by the write queue
system.mem_ctrls2.writeBursts                       4                       # Number of DRAM write bursts, including those merged in the write queue
system.mem_ctrls2.bytesReadDRAM               2186176                       # Total number of bytes read from DRAM
system.mem_ctrls2.bytesReadWrQ                      0                       # Total number of bytes read from write queue
system.mem_ctrls2.bytesWritten                      0                       # Total number of bytes written to DRAM
system.mem_ctrls2.bytesReadSys                2186176                       # Total read bytes from the system interface side
system.mem_ctrls2.bytesWrittenSys                 256                       # Total written bytes from the system interface side
system.mem_ctrls2.servicedByWrQ                     0                       # Number of DRAM read bursts serviced by the write queue
system.mem_ctrls2.mergedWrBursts                    0                       # Number of DRAM write bursts merged with an existing one
system.mem_ctrls2.neitherReadNorWriteReqs            0                       # Number of requests that are neither read nor write
system.mem_ctrls2.perBankRdBursts::0             2011                       # Per bank write bursts
system.mem_ctrls2.perBankRdBursts::1             1923                       # Per bank write bursts
system.mem_ctrls2.perBankRdBursts::2             2105                       # Per bank write bursts
system.mem_ctrls2.perBankRdBursts::3             2205                       # Per bank write bursts
system.mem_ctrls2.perBankRdBursts::4             1944                       # Per bank write bursts
system.mem_ctrls2.perBankRdBursts::5             2277                       # Per bank write bursts
system.mem_ctrls2.perBankRdBursts::6             2479                       # Per bank write bursts
system.mem_ctrls2.perBankRdBursts::7             1966                       # Per bank write bursts
system.mem_ctrls2.perBankRdBursts::8             1759                       # Per bank write bursts
system.mem_ctrls2.perBankRdBursts::9             1859                       # Per bank write bursts
system.mem_ctrls2.perBankRdBursts::10            2272                       # Per bank write bursts
system.mem_ctrls2.perBankRdBursts::11            2234                       # Per bank write bursts
system.mem_ctrls2.perBankRdBursts::12            2130                       # Per bank write bursts
system.mem_ctrls2.perBankRdBursts::13            2465                       # Per bank write bursts
system.mem_ctrls2.perBankRdBursts::14            2451                       # Per bank write bursts
system.mem_ctrls2.perBankRdBursts::15            2079                       # Per bank write bursts
system.mem_ctrls2.perBankWrBursts::0                0                       # Per bank write bursts
system.mem_ctrls2.perBankWrBursts::1                0                       # Per bank write bursts
system.mem_ctrls2.perBankWrBursts::2                0                       # Per bank write bursts
system.mem_ctrls2.perBankWrBursts::3                0                       # Per bank write bursts
system.mem_ctrls2.perBankWrBursts::4                0                       # Per bank write bursts
system.mem_ctrls2.perBankWrBursts::5                0                       # Per bank write bursts
system.mem_ctrls2.perBankWrBursts::6                0                       # Per bank write bursts
system.mem_ctrls2.perBankWrBursts::7                0                       # Per bank write bursts
system.mem_ctrls2.perBankWrBursts::8                0                       # Per bank write bursts
system.mem_ctrls2.perBankWrBursts::9                0                       # Per bank write bursts
system.mem_ctrls2.perBankWrBursts::10               0                       # Per bank write bursts
system.mem_ctrls2.perBankWrBursts::11               0                       # Per bank write bursts
system.mem_ctrls2.perBankWrBursts::12               0                       # Per bank write bursts
system.mem_ctrls2.perBankWrBursts::13               0                       # Per bank write bursts
system.mem_ctrls2.perBankWrBursts::14               0                       # Per bank write bursts
system.mem_ctrls2.perBankWrBursts::15               0                       # Per bank write bursts
system.mem_ctrls2.numRdRetry                        0                       # Number of times read queue was full causing retry
system.mem_ctrls2.numWrRetry                        0                       # Number of times write queue was full causing retry
system.mem_ctrls2.totGap                  14449851000                       # Total gap between requests
system.mem_ctrls2.readPktSize::0                    0                       # Read request sizes (log2)
system.mem_ctrls2.readPktSize::1                    0                       # Read request sizes (log2)
system.mem_ctrls2.readPktSize::2                    0                       # Read request sizes (log2)
system.mem_ctrls2.readPktSize::3                    0                       # Read request sizes (log2)
system.mem_ctrls2.readPktSize::4                    0                       # Read request sizes (log2)
system.mem_ctrls2.readPktSize::5                    0                       # Read request sizes (log2)
system.mem_ctrls2.readPktSize::6                34159                       # Read request sizes (log2)
system.mem_ctrls2.writePktSize::0                   0                       # Write request sizes (log2)
system.mem_ctrls2.writePktSize::1                   0                       # Write request sizes (log2)
system.mem_ctrls2.writePktSize::2                   0                       # Write request sizes (log2)
system.mem_ctrls2.writePktSize::3                   0                       # Write request sizes (log2)
system.mem_ctrls2.writePktSize::4                   0                       # Write request sizes (log2)
system.mem_ctrls2.writePktSize::5                   0                       # Write request sizes (log2)
system.mem_ctrls2.writePktSize::6                   4                       # Write request sizes (log2)
system.mem_ctrls2.rdQLenPdf::0                  24783                       # What read queue length does an incoming req see
system.mem_ctrls2.rdQLenPdf::1                   5651                       # What read queue length does an incoming req see
system.mem_ctrls2.rdQLenPdf::2                   2007                       # What read queue length does an incoming req see
system.mem_ctrls2.rdQLenPdf::3                    904                       # What read queue length does an incoming req see
system.mem_ctrls2.rdQLenPdf::4                    423                       # What read queue length does an incoming req see
system.mem_ctrls2.rdQLenPdf::5                    154                       # What read queue length does an incoming req see
system.mem_ctrls2.rdQLenPdf::6                     97                       # What read queue length does an incoming req see
system.mem_ctrls2.rdQLenPdf::7                     45                       # What read queue length does an incoming req see
system.mem_ctrls2.rdQLenPdf::8                     24                       # What read queue length does an incoming req see
system.mem_ctrls2.rdQLenPdf::9                     22                       # What read queue length does an incoming req see
system.mem_ctrls2.rdQLenPdf::10                    20                       # What read queue length does an incoming req see
system.mem_ctrls2.rdQLenPdf::11                    15                       # What read queue length does an incoming req see
system.mem_ctrls2.rdQLenPdf::12                    14                       # What read queue length does an incoming req see
system.mem_ctrls2.rdQLenPdf::13                     0                       # What read queue length does an incoming req see
system.mem_ctrls2.rdQLenPdf::14                     0                       # What read queue length does an incoming req see
system.mem_ctrls2.rdQLenPdf::15                     0                       # What read queue length does an incoming req see
system.mem_ctrls2.rdQLenPdf::16                     0                       # What read queue length does an incoming req see
system.mem_ctrls2.rdQLenPdf::17                     0                       # What read queue length does an incoming req see
system.mem_ctrls2.rdQLenPdf::18                     0                       # What read queue length does an incoming req see
system.mem_ctrls2.rdQLenPdf::19                     0                       # What read queue length does an incoming req see
system.mem_ctrls2.rdQLenPdf::20                     0                       # What read queue length does an incoming req see
system.mem_ctrls2.rdQLenPdf::21                     0                       # What read queue length does an incoming req see
system.mem_ctrls2.rdQLenPdf::22                     0                       # What read queue length does an incoming req see
system.mem_ctrls2.rdQLenPdf::23                     0                       # What read queue length does an incoming req see
system.mem_ctrls2.rdQLenPdf::24                     0                       # What read queue length does an incoming req see
system.mem_ctrls2.rdQLenPdf::25                     0                       # What read queue length does an incoming req see
system.mem_ctrls2.rdQLenPdf::26                     0                       # What read queue length does an incoming req see
system.mem_ctrls2.rdQLenPdf::27                     0                       # What read queue length does an incoming req see
system.mem_ctrls2.rdQLenPdf::28                     0                       # What read queue length does an incoming req see
system.mem_ctrls2.rdQLenPdf::29                     0                       # What read queue length does an incoming req see
system.mem_ctrls2.rdQLenPdf::30                     0                       # What read queue length does an incoming req see
system.mem_ctrls2.rdQLenPdf::31                     0                       # What read queue length does an incoming req see
system.mem_ctrls2.wrQLenPdf::0                      1                       # What write queue length does an incoming req see
system.mem_ctrls2.wrQLenPdf::1                      1                       # What write queue length does an incoming req see
system.mem_ctrls2.wrQLenPdf::2                      1                       # What write queue length does an incoming req see
system.mem_ctrls2.wrQLenPdf::3                      1                       # What write queue length does an incoming req see
system.mem_ctrls2.wrQLenPdf::4                      0                       # What write queue length does an incoming req see
system.mem_ctrls2.wrQLenPdf::5                      0                       # What write queue length does an incoming req see
system.mem_ctrls2.wrQLenPdf::6                      0                       # What write queue length does an incoming req see
system.mem_ctrls2.wrQLenPdf::7                      0                       # What write queue length does an incoming req see
system.mem_ctrls2.wrQLenPdf::8                      0                       # What write queue length does an incoming req see
system.mem_ctrls2.wrQLenPdf::9                      0                       # What write queue length does an incoming req see
system.mem_ctrls2.wrQLenPdf::10                     0                       # What write queue length does an incoming req see
system.mem_ctrls2.wrQLenPdf::11                     0                       # What write queue length does an incoming req see
system.mem_ctrls2.wrQLenPdf::12                     0                       # What write queue length does an incoming req see
system.mem_ctrls2.wrQLenPdf::13                     0                       # What write queue length does an incoming req see
system.mem_ctrls2.wrQLenPdf::14                     0                       # What write queue length does an incoming req see
system.mem_ctrls2.wrQLenPdf::15                     0                       # What write queue length does an incoming req see
system.mem_ctrls2.wrQLenPdf::16                     0                       # What write queue length does an incoming req see
system.mem_ctrls2.wrQLenPdf::17                     0                       # What write queue length does an incoming req see
system.mem_ctrls2.wrQLenPdf::18                     0                       # What write queue length does an incoming req see
system.mem_ctrls2.wrQLenPdf::19                     0                       # What write queue length does an incoming req see
system.mem_ctrls2.wrQLenPdf::20                     0                       # What write queue length does an incoming req see
system.mem_ctrls2.wrQLenPdf::21                     0                       # What write queue length does an incoming req see
system.mem_ctrls2.wrQLenPdf::22                     0                       # What write queue length does an incoming req see
system.mem_ctrls2.wrQLenPdf::23                     0                       # What write queue length does an incoming req see
system.mem_ctrls2.wrQLenPdf::24                     0                       # What write queue length does an incoming req see
system.mem_ctrls2.wrQLenPdf::25                     0                       # What write queue length does an incoming req see
system.mem_ctrls2.wrQLenPdf::26                     0                       # What write queue length does an incoming req see
system.mem_ctrls2.wrQLenPdf::27                     0                       # What write queue length does an incoming req see
system.mem_ctrls2.wrQLenPdf::28                     0                       # What write queue length does an incoming req see
system.mem_ctrls2.wrQLenPdf::29                     0                       # What write queue length does an incoming req see
system.mem_ctrls2.wrQLenPdf::30                     0                       # What write queue length does an incoming req see
system.mem_ctrls2.wrQLenPdf::31                     0                       # What write queue length does an incoming req see
system.mem_ctrls2.wrQLenPdf::32                     0                       # What write queue length does an incoming req see
system.mem_ctrls2.wrQLenPdf::33                     0                       # What write queue length does an incoming req see
system.mem_ctrls2.wrQLenPdf::34                     0                       # What write queue length does an incoming req see
system.mem_ctrls2.wrQLenPdf::35                     0                       # What write queue length does an incoming req see
system.mem_ctrls2.wrQLenPdf::36                     0                       # What write queue length does an incoming req see
system.mem_ctrls2.wrQLenPdf::37                     0                       # What write queue length does an incoming req see
system.mem_ctrls2.wrQLenPdf::38                     0                       # What write queue length does an incoming req see
system.mem_ctrls2.wrQLenPdf::39                     0                       # What write queue length does an incoming req see
system.mem_ctrls2.wrQLenPdf::40                     0                       # What write queue length does an incoming req see
system.mem_ctrls2.wrQLenPdf::41                     0                       # What write queue length does an incoming req see
system.mem_ctrls2.wrQLenPdf::42                     0                       # What write queue length does an incoming req see
system.mem_ctrls2.wrQLenPdf::43                     0                       # What write queue length does an incoming req see
system.mem_ctrls2.wrQLenPdf::44                     0                       # What write queue length does an incoming req see
system.mem_ctrls2.wrQLenPdf::45                     0                       # What write queue length does an incoming req see
system.mem_ctrls2.wrQLenPdf::46                     0                       # What write queue length does an incoming req see
system.mem_ctrls2.wrQLenPdf::47                     0                       # What write queue length does an incoming req see
system.mem_ctrls2.wrQLenPdf::48                     0                       # What write queue length does an incoming req see
system.mem_ctrls2.wrQLenPdf::49                     0                       # What write queue length does an incoming req see
system.mem_ctrls2.wrQLenPdf::50                     0                       # What write queue length does an incoming req see
system.mem_ctrls2.wrQLenPdf::51                     0                       # What write queue length does an incoming req see
system.mem_ctrls2.wrQLenPdf::52                     0                       # What write queue length does an incoming req see
system.mem_ctrls2.wrQLenPdf::53                     0                       # What write queue length does an incoming req see
system.mem_ctrls2.wrQLenPdf::54                     0                       # What write queue length does an incoming req see
system.mem_ctrls2.wrQLenPdf::55                     0                       # What write queue length does an incoming req see
system.mem_ctrls2.wrQLenPdf::56                     0                       # What write queue length does an incoming req see
system.mem_ctrls2.wrQLenPdf::57                     0                       # What write queue length does an incoming req see
system.mem_ctrls2.wrQLenPdf::58                     0                       # What write queue length does an incoming req see
[...]
system.ruby.L2Cache_Controller.NP.L1_GET_INSTR |        1302      6.30%      6.30% |        1330      6.44%     12.74% |        1456      7.05%     19.79% |        1246      6.03%     25.82% |        1316      6.37%     32.19% |        1288      6.24%     38.43% |        1261      6.10%     44.53% |        1260      6.10%     50.63% |        1331      6.44%     57.08% |        1134      5.49%     62.57% |        1232      5.96%     68.53% |        1233      5.97%     74.50% |        1207      5.84%     80.34% |        1274      6.17%     86.51% |        1470      7.12%     93.63% |        1316      6.37%    100.00%
system.ruby.L2Cache_Controller.NP.L1_GET_INSTR::total        20656                      
system.ruby.L2Cache_Controller.NP.L1_GETS |        8470      6.32%      6.32% |        8218      6.13%     12.45% |        7980      5.95%     18.40% |        8358      6.23%     24.64% |        8120      6.06%     30.69% |        8316      6.20%     36.90% |        8386      6.26%     43.15% |        8414      6.28%     49.43% |        8513      6.35%     55.78% |        8316      6.20%     61.98% |        8414      6.28%     68.26% |        8456      6.31%     74.57% |        8638      6.44%     81.01% |        8582      6.40%     87.42% |        8428      6.29%     93.70% |        8442      6.30%    100.00%
system.ruby.L2Cache_Controller.NP.L1_GETS::total       134051                      
system.ruby.L2Cache_Controller.NP.L1_GETX |        7476      6.23%      6.23% |        7541      6.28%     12.51% |        7581      6.31%     18.82% |        7533      6.27%     25.09% |        7546      6.28%     31.38% |        7517      6.26%     37.64% |        7536      6.28%     43.91% |        7530      6.27%     50.18% |        7476      6.23%     56.41% |        7468      6.22%     62.63% |        7496      6.24%     68.87% |        7451      6.21%     75.08% |        7454      6.21%     81.28% |        7509      6.25%     87.54% |        7481      6.23%     93.77% |        7485      6.23%    100.00%
system.ruby.L2Cache_Controller.NP.L1_GETX::total       120080                      
system.ruby.L2Cache_Controller.SS.L1_GET_INSTR |         261      4.86%      4.86% |         158      2.94%      7.80% |         258      4.81%     12.61% |          81      1.51%     14.12% |         411      7.66%     21.77% |         107      1.99%     23.77% |         238      4.43%     28.20% |         145      2.70%     30.90% |         181      3.37%     34.27% |          87      1.62%     35.89% |         199      3.71%     39.60% |         183      3.41%     43.01% |         165      3.07%     46.08% |         176      3.28%     49.36% |        2587     48.18%     97.54% |         132      2.46%    100.00%
system.ruby.L2Cache_Controller.SS.L1_GET_INSTR::total         5369                      
system.ruby.L2Cache_Controller.SS.L1_GETS |           0      0.00%      0.00% |           0      0.00%      0.00% |          14     33.33%     33.33% |           0      0.00%     33.33% |           0      0.00%     33.33% |           0      0.00%     33.33% |           0      0.00%     33.33% |           0      0.00%     33.33% |          14     33.33%     66.67% |          14     33.33%    100.00% |           0      0.00%    100.00% |           0      0.00%    100.00% |           0      0.00%    100.00% |           0      0.00%    100.00% |           0      0.00%    100.00% |           0      0.00%    100.00%
system.ruby.L2Cache_Controller.SS.L1_GETS::total           42                      
system.ruby.L2Cache_Controller.SS.L1_GETX |          14      4.33%      4.33% |          14      4.33%      8.67% |          14      4.33%     13.00% |          28      8.67%     21.67% |          28      8.67%     30.34% |          28      8.67%     39.01% |          28      8.67%     47.68% |          28      8.67%     56.35% |          28      8.67%     65.02% |          28      8.67%     73.68% |          15      4.64%     78.33% |          28      8.67%     87.00% |          14      4.33%     91.33% |          14      4.33%     95.67% |           0      0.00%     95.67% |          14      4.33%    100.00%
system.ruby.L2Cache_Controller.SS.L1_GETX::total          323                      
system.ruby.L2Cache_Controller.SS.L1_UPGRADE |          28      3.71%      3.71% |          28      3.71%      7.42% |          56      7.42%     14.83% |          28      3.71%     18.54% |          28      3.71%     22.25% |          56      7.42%     29.67% |          56      7.42%     37.09% |          56      7.42%     44.50% |          56      7.42%     51.92% |          56      7.42%     59.34% |          69      9.14%     68.48% |          56      7.42%     75.89% |          56      7.42%     83.31% |          56      7.42%     90.73% |          42      5.56%     96.29% |          28      3.71%    100.00%
system.ruby.L2Cache_Controller.SS.L1_UPGRADE::total          755                      
system.ruby.L2Cache_Controller.SS.L2_Replacement_clean |           5      4.72%      4.72% |           8      7.55%     12.26% |           7      6.60%     18.87% |           8      7.55%     26.42% |           2      1.89%     28.30% |           6      5.66%     33.96% |           7      6.60%     40.57% |           7      6.60%     47.17% |           8      7.55%     54.72% |           7      6.60%     61.32% |           3      2.83%     64.15% |           7      6.60%     70.75% |          12     11.32%     82.08% |           6      5.66%     87.74% |           7      6.60%     94.34% |           6      5.66%    100.00%
system.ruby.L2Cache_Controller.SS.L2_Replacement_clean::total          106                      
system.ruby.L2Cache_Controller.M.L1_GET_INSTR |          14     25.00%     25.00% |           0      0.00%     25.00% |           0      0.00%     25.00% |           0      0.00%     25.00% |           0      0.00%     25.00% |           0      0.00%     25.00% |           0      0.00%     25.00% |           0      0.00%     25.00% |          14     25.00%     50.00% |          14     25.00%     75.00% |           0      0.00%     75.00% |           0      0.00%     75.00% |           0      0.00%     75.00% |           0      0.00%     75.00% |          14     25.00%    100.00% |           0      0.00%    100.00%
system.ruby.L2Cache_Controller.M.L1_GET_INSTR::total           56                      
system.ruby.L2Cache_Controller.M.L1_GETS |       45619      6.22%      6.22% |       45638      6.22%     12.45% |       45614      6.22%     18.67% |       45945      6.27%     24.93% |       45549      6.21%     31.15% |       45385      6.19%     37.34% |       45527      6.21%     43.55% |       45714      6.23%     49.78% |       45769      6.24%     56.02% |       45537      6.21%     62.23% |       47075      6.42%     68.66% |       46165      6.30%     74.95% |       46150      6.29%     81.25% |       46258      6.31%     87.56% |       46032      6.28%     93.83% |       45207      6.17%    100.00%
system.ruby.L2Cache_Controller.M.L1_GETS::total       733184                      
system.ruby.L2Cache_Controller.M.L1_GETX |         983      6.01%      6.01% |        1082      6.62%     12.63% |        1014      6.20%     18.84% |         934      5.71%     24.55% |        1028      6.29%     30.84% |         948      5.80%     36.64% |         894      5.47%     42.11% |        1061      6.49%     48.60% |         966      5.91%     54.51% |        1010      6.18%     60.69% |        1602      9.80%     70.49% |         939      5.74%     76.23% |         949      5.81%     82.04% |         849      5.19%     87.23% |        1011      6.18%     93.42% |        1076      6.58%    100.00%
system.ruby.L2Cache_Controller.M.L1_GETX::total        16346                      
system.ruby.L2Cache_Controller.M.L2_Replacement |           3      5.36%      5.36% |           6     10.71%     16.07% |           1      1.79%     17.86% |           2      3.57%     21.43% |           3      5.36%     26.79% |           2      3.57%     30.36% |           1      1.79%     32.14% |           6     10.71%     42.86% |           6     10.71%     53.57% |           7     12.50%     66.07% |           3      5.36%     71.43% |           2      3.57%     75.00% |           6     10.71%     85.71% |           5      8.93%     94.64% |           2      3.57%     98.21% |           1      1.79%    100.00%
system.ruby.L2Cache_Controller.M.L2_Replacement::total           56                      
system.ruby.L2Cache_Controller.M.L2_Replacement_clean |           5      2.58%      2.58% |          14      7.22%      9.79% |          13      6.70%     16.49% |          12      6.19%     22.68% |           9      4.64%     27.32% |           7      3.61%     30.93% |           9      4.64%     35.57% |          13      6.70%     42.27% |          18      9.28%     51.55% |          16      8.25%     59.79% |          16      8.25%     68.04% |          14      7.22%     75.26% |          16      8.25%     83.51% |          11      5.67%     89.18% |          11      5.67%     94.85% |          10      5.15%    100.00%
system.ruby.L2Cache_Controller.M.L2_Replacement_clean::total          194                      
system.ruby.L2Cache_Controller.MT.L1_GETS |          70      3.94%      3.94% |          70      3.94%      7.87% |          98      5.51%     13.39% |          98      5.51%     18.90% |          98      5.51%     24.41% |         140      7.87%     32.28% |         140      7.87%     40.16% |         140      7.87%     48.03% |         140      7.87%     55.91% |         140      7.87%     63.78% |         140      7.87%     71.65% |         140      7.87%     79.53% |         112      6.30%     85.83% |         112      6.30%     92.13% |          70      3.94%     96.06% |          70      3.94%    100.00%
system.ruby.L2Cache_Controller.MT.L1_GETS::total         1778                      
system.ruby.L2Cache_Controller.MT.L1_PUTX |       61624      6.23%      6.23% |       61555      6.23%     12.46% |       61268      6.20%     18.66% |       61832      6.25%     24.91% |       61306      6.20%     31.11% |       61217      6.19%     37.30% |       61391      6.21%     43.51% |       61770      6.25%     49.76% |       61786      6.25%     56.01% |       61382      6.21%     62.22% |       63638      6.44%     68.66% |       62059      6.28%     74.93% |       62253      6.30%     81.23% |       62262      6.30%     87.53% |       62028      6.27%     93.80% |       61289      6.20%    100.00%
system.ruby.L2Cache_Controller.MT.L1_PUTX::total       988660                      
system.ruby.L2Cache_Controller.MT.L2_Replacement_clean |           0      0.00%      0.00% |           0      0.00%      0.00% |           0      0.00%      0.00% |           0      0.00%      0.00% |           0      0.00%      0.00% |           0      0.00%      0.00% |           0      0.00%      0.00% |           0      0.00%      0.00% |           0      0.00%      0.00% |           0      0.00%      0.00% |           0      0.00%      0.00% |           0      0.00%      0.00% |           0      0.00%      0.00% |           0      0.00%      0.00% |           1    100.00%    100.00% |           0      0.00%    100.00%
system.ruby.L2Cache_Controller.MT.L2_Replacement_clean::total            1                      
system.ruby.L2Cache_Controller.M_I.Mem_Ack |          13      3.64%      3.64% |          28      7.84%     11.48% |          21      5.88%     17.37% |          22      6.16%     23.53% |          14      3.92%     27.45% |          15      4.20%     31.65% |          17      4.76%     36.41% |          26      7.28%     43.70% |          32      8.96%     52.66% |          30      8.40%     61.06% |          22      6.16%     67.23% |          23      6.44%     73.67% |          34      9.52%     83.19% |          22      6.16%     89.36% |          21      5.88%     95.24% |          17      4.76%    100.00%
system.ruby.L2Cache_Controller.M_I.Mem_Ack::total          357                      
system.ruby.L2Cache_Controller.MCT_I.WB_Data |           0      0.00%      0.00% |           0      0.00%      0.00% |           0      0.00%      0.00% |           0      0.00%      0.00% |           0      0.00%      0.00% |           0      0.00%      0.00% |           0      0.00%      0.00% |           0      0.00%      0.00% |           0      0.00%      0.00% |           0      0.00%      0.00% |           0      0.00%      0.00% |           0      0.00%      0.00% |           0      0.00%      0.00% |           0      0.00%      0.00% |           1    100.00%    100.00% |           0      0.00%    100.00%
system.ruby.L2Cache_Controller.MCT_I.WB_Data::total            1                      
system.ruby.L2Cache_Controller.I_I.Ack_all |           5      4.72%      4.72% |           8      7.55%     12.26% |           7      6.60%     18.87% |           8      7.55%     26.42% |           2      1.89%     28.30% |           6      5.66%     33.96% |           7      6.60%     40.57% |           7      6.60%     47.17% |           8      7.55%     54.72% |           7      6.60%     61.32% |           3      2.83%     64.15% |           7      6.60%     70.75% |          12     11.32%     82.08% |           6      5.66%     87.74% |           7      6.60%     94.34% |           6      5.66%    100.00%
system.ruby.L2Cache_Controller.I_I.Ack_all::total          106                      
system.ruby.L2Cache_Controller.ISS.Mem_Data |        8470      6.32%      6.32% |        8218      6.13%     12.45% |        7980      5.95%     18.40% |        8358      6.23%     24.64% |        8120      6.06%     30.69% |        8316      6.20%     36.90% |        8386      6.26%     43.15% |        8414      6.28%     49.43% |        8513      6.35%     55.78% |        8316      6.20%     61.98% |        8414      6.28%     68.26% |        8456      6.31%     74.57% |        8638      6.44%     81.01% |        8582      6.40%     87.42% |        8428      6.29%     93.70% |        8442      6.30%    100.00%
system.ruby.L2Cache_Controller.ISS.Mem_Data::total       134051                      
system.ruby.L2Cache_Controller.IS.Mem_Data |        1302      6.30%      6.30% |        1330      6.44%     12.74% |        1456      7.05%     19.79% |        1246      6.03%     25.82% |        1316      6.37%     32.19% |        1288      6.24%     38.43% |        1261      6.10%     44.53% |        1260      6.10%     50.63% |        1331      6.44%     57.08% |        1134      5.49%     62.57% |        1232      5.96%     68.53% |        1233      5.97%     74.50% |        1207      5.84%     80.34% |        1274      6.17%     86.51% |        1470      7.12%     93.63% |        1316      6.37%    100.00%
system.ruby.L2Cache_Controller.IS.Mem_Data::total        20656                      
system.ruby.L2Cache_Controller.IM.Mem_Data |        7476      6.23%      6.23% |        7541      6.28%     12.51% |        7581      6.31%     18.82% |        7533      6.27%     25.09% |        7546      6.28%     31.38% |        7517      6.26%     37.64% |        7536      6.28%     43.91% |        7530      6.27%     50.18% |        7476      6.23%     56.41% |        7468      6.22%     62.63% |        7496      6.24%     68.87% |        7451      6.21%     75.08% |        7454      6.21%     81.28% |        7509      6.25%     87.54% |        7481      6.23%     93.77% |        7485      6.23%    100.00%
system.ruby.L2Cache_Controller.IM.Mem_Data::total       120080                      
system.ruby.L2Cache_Controller.SS_MB.Exclusive_Unblock |          42      3.90%      3.90% |          42      3.90%      7.79% |          70      6.49%     14.29% |          56      5.19%     19.48% |          56      5.19%     24.68% |          84      7.79%     32.47% |          84      7.79%     40.26% |          84      7.79%     48.05% |          84      7.79%     55.84% |          84      7.79%     63.64% |          84      7.79%     71.43% |          84      7.79%     79.22% |          70      6.49%     85.71% |          70      6.49%     92.21% |          42      3.90%     96.10% |          42      3.90%    100.00%
system.ruby.L2Cache_Controller.SS_MB.Exclusive_Unblock::total         1078                      
system.ruby.L2Cache_Controller.MT_MB.Exclusive_Unblock |       62548      6.23%      6.23% |       62479      6.23%     12.46% |       62189      6.20%     18.65% |       62770      6.25%     24.91% |       62243      6.20%     31.11% |       62166      6.19%     37.30% |       62343      6.21%     43.51% |       62719      6.25%     49.76% |       62724      6.25%     56.01% |       62331      6.21%     62.22% |       64587      6.44%     68.66% |       63011      6.28%     74.94% |       63191      6.30%     81.23% |       63198      6.30%     87.53% |       62952      6.27%     93.80% |       62210      6.20%    100.00%
system.ruby.L2Cache_Controller.MT_MB.Exclusive_Unblock::total      1003661                      
system.ruby.L2Cache_Controller.MT_IIB.WB_Data |          69      3.94%      3.94% |          69      3.94%      7.89% |          96      5.49%     13.37% |          95      5.43%     18.80% |          96      5.49%     24.29% |         138      7.89%     32.17% |         135      7.71%     39.89% |         137      7.83%     47.71% |         138      7.89%     55.60% |         139      7.94%     63.54% |         139      7.94%     71.49% |         140      8.00%     79.49% |         112      6.40%     85.89% |         111      6.34%     92.23% |          70      4.00%     96.23% |          66      3.77%    100.00%
system.ruby.L2Cache_Controller.MT_IIB.WB_Data::total         1750                      
system.ruby.L2Cache_Controller.MT_IIB.Unblock |           1      3.57%      3.57% |           1      3.57%      7.14% |           2      7.14%     14.29% |           3     10.71%     25.00% |           2      7.14%     32.14% |           2      7.14%     39.29% |           5     17.86%     57.14% |           3     10.71%     67.86% |           2      7.14%     75.00% |           1      3.57%     78.57% |           1      3.57%     82.14% |           0      0.00%     82.14% |           0      0.00%     82.14% |           1      3.57%     85.71% |           0      0.00%     85.71% |           4     14.29%    100.00%
system.ruby.L2Cache_Controller.MT_IIB.Unblock::total           28                      
system.ruby.L2Cache_Controller.MT_IB.WB_Data |           1      3.57%      3.57% |           1      3.57%      7.14% |           2      7.14%     14.29% |           3     10.71%     25.00% |           2      7.14%     32.14% |           2      7.14%     39.29% |           5     17.86%     57.14% |           3     10.71%     67.86% |           2      7.14%     75.00% |           1      3.57%     78.57% |           1      3.57%     82.14% |           0      0.00%     82.14% |           0      0.00%     82.14% |           1      3.57%     85.71% |           0      0.00%     85.71% |           4     14.29%    100.00%
system.ruby.L2Cache_Controller.MT_IB.WB_Data::total           28                      
system.ruby.L2Cache_Controller.MT_SB.Unblock |          69      3.94%      3.94% |          69      3.94%      7.89% |          96      5.49%     13.37% |          95      5.43%     18.80% |          96      5.49%     24.29% |         138      7.89%     32.17% |         135      7.71%     39.89% |         137      7.83%     47.71% |         138      7.89%     55.60% |         139      7.94%     63.54% |         139      7.94%     71.49% |         140      8.00%     79.49% |         112      6.40%     85.89% |         111      6.34%     92.23% |          70      4.00%     96.23% |          66      3.77%    100.00%
system.ruby.L2Cache_Controller.MT_SB.Unblock::total         1750                      

---------- End Simulation Statistics   ----------
