
---------- Begin Simulation Statistics ----------
sim_seconds                                  0.015954                       # Number of seconds simulated
sim_ticks                                 15953537000                       # Number of ticks simulated
final_tick                                15953537000                       # Number of ticks from beginning of simulation (restored from checkpoints and never reset)
sim_freq                                 1000000000000                       # Frequency of simulated ticks
host_inst_rate                                  57567                       # Simulator instruction rate (inst/s)
host_op_rate                                    99843                       # Simulator op (including micro ops) rate (op/s)
host_tick_rate                               19929455                       # Simulator tick rate (ticks/s)
host_mem_usage                                2041160                       # Number of bytes of host memory used
host_seconds                                   800.50                       # Real time elapsed on the host
sim_insts                                    46082284                       # Number of instructions simulated
sim_ops                                      79924660                       # Number of ops (including micro ops) simulated
system.voltage_domain.voltage                       1                       # Voltage in Volts
system.clk_domain.clock                          1000                       # Clock period in ticks
system.mem_ctrls0.pwrStateResidencyTicks::UNDEFINED  15953537000                       # Cumulative time (in ticks) in various power states
system.mem_ctrls0.bytes_read::ruby.dir_cntrl0     10124992                       # Number of bytes read from this memory
system.mem_ctrls0.bytes_read::total          10124992                       # Number of bytes read from this memory
system.mem_ctrls0.bytes_written::ruby.dir_cntrl0      1071552                       # Number of bytes written to this memory
system.mem_ctrls0.bytes_written::total        1071552                       # Number of bytes written to this memory
system.mem_ctrls0.num_reads::ruby.dir_cntrl0       158203                       # Number of read requests responded to by this memory
system.mem_ctrls0.num_reads::total             158203                       # Number of read requests responded to by this memory
system.mem_ctrls0.num_writes::ruby.dir_cntrl0        16743                       # Number of write requests responded to by this memory
system.mem_ctrls0.num_writes::total             16743                       # Number of write requests responded to by this memory
system.mem_ctrls0.bw_read::ruby.dir_cntrl0    634654998                       # Total read bandwidth from this memory (bytes/s)
system.mem_ctrls0.bw_read::total            634654998                       # Total read bandwidth from this memory (bytes/s)
system.mem_ctrls0.bw_write::ruby.dir_cntrl0     67167049                       # Write bandwidth from this memory (bytes/s)
system.mem_ctrls0.bw_write::total            67167049                       # Write bandwidth from this memory (bytes/s)
system.mem_ctrls0.bw_total::ruby.dir_cntrl0    701822047                       # Total bandwidth to/from this memory (bytes/s)
system.mem_ctrls0.bw_total::total           701822047                       # Total bandwidth to/from this memory (bytes/s)
system.mem_ctrls0.readReqs                     158203                       # Number of read requests accepted
system.mem_ctrls0.avgNetLat                      0.00                       # Average network latency to DRAM controller
system.mem_ctrls0.writeReqs                     16743                       # Number of write requests accepted
system.mem_ctrls0.readBursts                   158203                       # Number of DRAM read bursts, including those serviced by the write queue
system.mem_ctrls0.writeBursts                   16743                       # Number of DRAM write bursts, including those merged in the write queue
system.mem_ctrls0.bytesReadDRAM              10124352                       # Total number of bytes read from DRAM
system.mem_ctrls0.bytesReadWrQ                    640                       # Total number of bytes read from write queue
system.mem_ctrls0.bytesWritten                1069568                       # Total number of bytes written to DRAM
system.mem_ctrls0.bytesReadSys               10124992                       # Total read bytes from the system interface side
system.mem_ctrls0.bytesWrittenSys             1071552                       # Total written bytes from the system interface side
system.mem_ctrls0.servicedByWrQ                    10                       # Number of DRAM read bursts serviced by the write queue
system.mem_ctrls0.mergedWrBursts                    0                       # Number of DRAM write bursts merged with an existing one
system.mem_ctrls0.neitherReadNorWriteReqs            0                       # Number of requests that are neither read nor write
system.mem_ctrls0.perBankRdBursts::0            10248                       # Per bank write bursts
system.mem_ctrls0.perBankRdBursts::1            10101                       # Per bank write bursts
system.mem_ctrls0.perBankRdBursts::2             9829                       # Per bank write bursts
system.mem_ctrls0.perBankRdBursts::3             9697                       # Per bank write bursts
system.mem_ctrls0.perBankRdBursts::4             9458                       # Per bank write bursts
system.mem_ctrls0.perBankRdBursts::5             9407                       # Per bank write bursts
system.mem_ctrls0.perBankRdBursts::6             9187                       # Per bank write bursts
system.mem_ctrls0.perBankRdBursts::7             9388                       # Per bank write bursts
system.mem_ctrls0.perBankRdBursts::8             9275                       # Per bank write bursts
system.mem_ctrls0.perBankRdBursts::9             9512                       # Per bank write bursts
system.mem_ctrls0.perBankRdBursts::10           10297                       # Per bank write bursts
system.mem_ctrls0.perBankRdBursts::11           10374                       # Per bank write bursts
system.mem_ctrls0.perBankRdBursts::12           10664                       # Per bank write bursts
system.mem_ctrls0.perBankRdBursts::13           10764                       # Per bank write bursts
system.mem_ctrls0.perBankRdBursts::14           10234                       # Per bank write bursts
system.mem_ctrls0.perBankRdBursts::15            9758                       # Per bank write bursts
system.mem_ctrls0.perBankWrBursts::0             1146                       # Per bank write bursts
system.mem_ctrls0.perBankWrBursts::1             1066                       # Per bank write bursts
system.mem_ctrls0.perBankWrBursts::2             1011                       # Per bank write bursts
system.mem_ctrls0.perBankWrBursts::3             1028                       # Per bank write bursts
system.mem_ctrls0.perBankWrBursts::4              984                       # Per bank write bursts
system.mem_ctrls0.perBankWrBursts::5              953                       # Per bank write bursts
system.mem_ctrls0.perBankWrBursts::6              834                       # Per bank write bursts
system.mem_ctrls0.perBankWrBursts::7              842                       # Per bank write bursts
system.mem_ctrls0.perBankWrBursts::8              901                       # Per bank write bursts
system.mem_ctrls0.perBankWrBursts::9             1055                       # Per bank write bursts
system.mem_ctrls0.perBankWrBursts::10            1163                       # Per bank write bursts
system.mem_ctrls0.perBankWrBursts::11            1214                       # Per bank write bursts
system.mem_ctrls0.perBankWrBursts::12            1309                       # Per bank write bursts
system.mem_ctrls0.perBankWrBursts::13            1252                       # Per bank write bursts
system.mem_ctrls0.perBankWrBursts::14            1021                       # Per bank write bursts
system.mem_ctrls0.perBankWrBursts::15             933                       # Per bank write bursts
system.mem_ctrls0.numRdRetry                        0                       # Number of times read queue was full causing retry
system.mem_ctrls0.numWrRetry                        0                       # Number of times write queue was full causing retry
system.mem_ctrls0.totGap                  15952486500                       # Total gap between requests
system.mem_ctrls0.readPktSize::0                    0                       # Read request sizes (log2)
system.mem_ctrls0.readPktSize::1                    0                       # Read request sizes (log2)
system.mem_ctrls0.readPktSize::2                    0                       # Read request sizes (log2)
system.mem_ctrls0.readPktSize::3                    0                       # Read request sizes (log2)
system.mem_ctrls0.readPktSize::4                    0                       # Read request sizes (log2)
system.mem_ctrls0.readPktSize::5                    0                       # Read request sizes (log2)
system.mem_ctrls0.readPktSize::6               158203                       # Read request sizes (log2)
system.mem_ctrls0.writePktSize::0                   0                       # Write request sizes (log2)
system.mem_ctrls0.writePktSize::1                   0                       # Write request sizes (log2)
system.mem_ctrls0.writePktSize::2                   0                       # Write request sizes (log2)
system.mem_ctrls0.writePktSize::3                   0                       # Write request sizes (log2)
system.mem_ctrls0.writePktSize::4                   0                       # Write request sizes (log2)
system.mem_ctrls0.writePktSize::5                   0                       # Write request sizes (log2)
system.mem_ctrls0.writePktSize::6               16743                       # Write request sizes (log2)
system.mem_ctrls0.rdQLenPdf::0                  79128                       # What read queue length does an incoming req see
system.mem_ctrls0.rdQLenPdf::1                  41625                       # What read queue length does an incoming req see
system.mem_ctrls0.rdQLenPdf::2                  20834                       # What read queue length does an incoming req see
system.mem_ctrls0.rdQLenPdf::3                   9794                       # What read queue length does an incoming req see
system.mem_ctrls0.rdQLenPdf::4                   4134                       # What read queue length does an incoming req see
system.mem_ctrls0.rdQLenPdf::5                   1708                       # What read queue length does an incoming req see
system.mem_ctrls0.rdQLenPdf::6                    652                       # What read queue length does an incoming req see
system.mem_ctrls0.rdQLenPdf::7                    221                       # What read queue length does an incoming req see
system.mem_ctrls0.rdQLenPdf::8                     59                       # What read queue length does an incoming req see
system.mem_ctrls0.rdQLenPdf::9                     26                       # What read queue length does an incoming req see
system.mem_ctrls0.rdQLenPdf::10                    11                       # What read queue length does an incoming req see
system.mem_ctrls0.rdQLenPdf::11                     1                       # What read queue length does an incoming req see
system.mem_ctrls0.rdQLenPdf::12                     0                       # What read queue length does an incoming req see
system.mem_ctrls0.rdQLenPdf::13                     0                       # What read queue length does an incoming req see
system.mem_ctrls0.rdQLenPdf::14                     0                       # What read queue length does an incoming req see
system.mem_ctrls0.rdQLenPdf::15                     0                       # What read queue length does an incoming req see
system.mem_ctrls0.rdQLenPdf::16                     0                       # What read queue length does an incoming req see
system.mem_ctrls0.rdQLenPdf::17                     0                       # What read queue length does an incoming req see
system.mem_ctrls0.rdQLenPdf::18                     0                       # What read queue length does an incoming req see
system.mem_ctrls0.rdQLenPdf::19                     0                       # What read queue length does an incoming req see
system.mem_ctrls0.rdQLenPdf::20                     0                       # What read queue length does an incoming req see
system.mem_ctrls0.rdQLenPdf::21                     0                       # What read queue length does an incoming req see
system.mem_ctrls0.rdQLenPdf::22                     0                       # What read queue length does an incoming req see
system.mem_ctrls0.rdQLenPdf::23                     0                       # What read queue length does an incoming req see
system.mem_ctrls0.rdQLenPdf::24                     0                       # What read queue length does an incoming req see
system.mem_ctrls0.rdQLenPdf::25                     0                       # What read queue length does an incoming req see
system.mem_ctrls0.rdQLenPdf::26                     0                       # What read queue length does an incoming req see
system.mem_ctrls0.rdQLenPdf::27                     0                       # What read queue length does an incoming req see
system.mem_ctrls0.rdQLenPdf::28                     0                       # What read queue length does an incoming req see
system.mem_ctrls0.rdQLenPdf::29                     0                       # What read queue length does an incoming req see
system.mem_ctrls0.rdQLenPdf::30                     0                       # What read queue length does an incoming req see
system.mem_ctrls0.rdQLenPdf::31                     0                       # What read queue length does an incoming req see
system.mem_ctrls0.wrQLenPdf::0                      1                       # What write queue length does an incoming req see
system.mem_ctrls0.wrQLenPdf::1                      1                       # What write queue length does an incoming req see
system.mem_ctrls0.wrQLenPdf::2                      1                       # What write queue length does an incoming req see
system.mem_ctrls0.wrQLenPdf::3                      1                       # What write queue length does an incoming req see
system.mem_ctrls0.wrQLenPdf::4                      1                       # What write queue length does an incoming req see
system.mem_ctrls0.wrQLenPdf::5                      1                       # What write queue length does an incoming req see
system.mem_ctrls0.wrQLenPdf::6                      1                       # What write queue length does an incoming req see
system.mem_ctrls0.wrQLenPdf::7                      1                       # What write queue length does an incoming req see
system.mem_ctrls0.wrQLenPdf::8                      1                       # What write queue length does an incoming req see
system.mem_ctrls0.wrQLenPdf::9                      1                       # What write queue length does an incoming req see
system.mem_ctrls0.wrQLenPdf::10                     1                       # What write queue length does an incoming req see
system.mem_ctrls0.wrQLenPdf::11                     1                       # What write queue length does an incoming req see
system.mem_ctrls0.wrQLenPdf::12                     1                       # What write queue length does an incoming req see
system.mem_ctrls0.wrQLenPdf::13                     1                       # What write queue length does an incoming req see
system.mem_ctrls0.wrQLenPdf::14                     1                       # What write queue length does an incoming req see
system.mem_ctrls0.wrQLenPdf::15                   280                       # What write queue length does an incoming req see
system.mem_ctrls0.wrQLenPdf::16                   324                       # What write queue length does an incoming req see
system.mem_ctrls0.wrQLenPdf::17                   682                       # What write queue length does an incoming req see
system.mem_ctrls0.wrQLenPdf::18                   950                       # What write queue length does an incoming req see
system.mem_ctrls0.wrQLenPdf::19                  1035                       # What write queue length does an incoming req see
system.mem_ctrls0.wrQLenPdf::20                  1047                       # What write queue length does an incoming req see
system.mem_ctrls0.wrQLenPdf::21                  1047                       # What write queue length does an incoming req see
system.mem_ctrls0.wrQLenPdf::22                  1041                       # What write queue length does an incoming req see
system.mem_ctrls0.wrQLenPdf::23                  1039                       # What write queue length does an incoming req see
system.mem_ctrls0.wrQLenPdf::24                  1036                       # What write queue length does an incoming req see
system.mem_ctrls0.wrQLenPdf::25                  1033                       # What write queue length does an incoming req see
system.mem_ctrls0.wrQLenPdf::26                  1029                       # What write queue length does an incoming req see
system.mem_ctrls0.wrQLenPdf::27                  1032                       # What write queue length does an incoming req see
system.mem_ctrls0.wrQLenPdf::28                  1030                       # What write queue length does an incoming req see
system.mem_ctrls0.wrQLenPdf::29                  1026                       # What write queue length does an incoming req see
system.mem_ctrls0.wrQLenPdf::30                  1026                       # What write queue length does an incoming req see
system.mem_ctrls0.wrQLenPdf::31                  1026                       # What write queue length does an incoming req see
system.mem_ctrls0.wrQLenPdf::32                  1019                       # What write queue length does an incoming req see
system.mem_ctrls0.wrQLenPdf::33                    22                       # What write queue length does an incoming req see
system.mem_ctrls0.wrQLenPdf::34                     4                       # What write queue length does an incoming req see
system.mem_ctrls0.wrQLenPdf::35                     0                       # What write queue length does an incoming req see
system.mem_ctrls0.wrQLenPdf::36                     0                       # What write queue length does an incoming req see
system.mem_ctrls0.wrQLenPdf::37                     0                       # What write queue length does an incoming req see
system.mem_ctrls0.wrQLenPdf::38                     0                       # What write queue length does an incoming req see
system.mem_ctrls0.wrQLenPdf::39                     0                       # What write queue length does an incoming req see
system.mem_ctrls0.wrQLenPdf::40                     0                       # What write queue length does an incoming req see
system.mem_ctrls0.wrQLenPdf::41                     0                       # What write queue length does an incoming req see
system.mem_ctrls0.wrQLenPdf::42                     0                       # What write queue length does an incoming req see
system.mem_ctrls0.wrQLenPdf::43                     0                       # What write queue length does an incoming req see
system.mem_ctrls0.wrQLenPdf::44                     0                       # What write queue length does an incoming req see
system.mem_ctrls0.wrQLenPdf::45                     0                       # What write queue length does an incoming req see
system.mem_ctrls0.wrQLenPdf::46                     0                       # What write queue length does an incoming req see
system.mem_ctrls0.wrQLenPdf::47                     0                       # What write queue length does an incoming req see
system.mem_ctrls0.wrQLenPdf::48                     0                       # What write queue length does an incoming req see
system.mem_ctrls0.wrQLenPdf::49                     0                       # What write queue length does an incoming req see
system.mem_ctrls0.wrQLenPdf::50                     0                       # What write queue length does an incoming req see
system.mem_ctrls0.wrQLenPdf::51                     0                       # What write queue length does an incoming req see
system.mem_ctrls0.wrQLenPdf::52                     0                       # What write queue length does an incoming req see
system.mem_ctrls0.wrQLenPdf::53                     0                       # What write queue length does an incoming req see
system.mem_ctrls0.wrQLenPdf::54                     0                       # What write queue length does an incoming req see
system.mem_ctrls0.wrQLenPdf::55                     0                       # What write queue length does an incoming req see
system.mem_ctrls0.wrQLenPdf::56                     0                       # What write queue length does an incoming req see
system.mem_ctrls0.wrQLenPdf::57                     0                       # What write queue length does an incoming req see
system.mem_ctrls0.wrQLenPdf::58                     0                       # What write queue length does an incoming req see
system.mem_ctrls0.wrQLenPdf::59                     0                       # What write queue length does an incoming req see
system.mem_ctrls0.wrQLenPdf::60                     0                       # What write queue length does an incoming req see
system.mem_ctrls0.wrQLenPdf::61                     0                       # What write queue length does an incoming req see
system.mem_ctrls0.wrQLenPdf::62                     0                       # What write queue length does an incoming req see
system.mem_ctrls0.wrQLenPdf::63                     0                       # What write queue length does an incoming req see
system.mem_ctrls0.bytesPerActivate::samples        96398                       # Bytes accessed per row activation
system.mem_ctrls0.bytesPerActivate::mean   116.121911                       # Bytes accessed per row activation
system.mem_ctrls0.bytesPerActivate::gmean    89.846967                       # Bytes accessed per row activation
system.mem_ctrls0.bytesPerActivate::stdev   124.908040                       # Bytes accessed per row activation
system.mem_ctrls0.bytesPerActivate::0-127        66664     69.15%     69.15% # Bytes accessed per row activation
system.mem_ctrls0.bytesPerActivate::128-255        20083     20.83%     89.99% # Bytes accessed per row activation
system.mem_ctrls0.bytesPerActivate::256-383         3982      4.13%     94.12% # Bytes accessed per row activation
system.mem_ctrls0.bytesPerActivate::384-511         2297      2.38%     96.50% # Bytes accessed per row activation
system.mem_ctrls0.bytesPerActivate::512-639         1534      1.59%     98.09% # Bytes accessed per row activation
system.mem_ctrls0.bytesPerActivate::640-767         1265      1.31%     99.41% # Bytes accessed per row activation
system.mem_ctrls0.bytesPerActivate::768-895          190      0.20%     99.60% # Bytes accessed per row activation
system.mem_ctrls0.bytesPerActivate::896-1023          151      0.16%     99.76% # Bytes accessed per row activation
system.mem_ctrls0.bytesPerActivate::1024-1151          232      0.24%    100.00% # Bytes accessed per row activation
system.mem_ctrls0.bytesPerActivate::total        96398                       # Bytes accessed per row activation
system.mem_ctrls0.rdPerTurnAround::samples         1006                       # Reads before turning the bus around for writes
system.mem_ctrls0.rdPerTurnAround::mean    157.229622                       # Reads before turning the bus around for writes
system.mem_ctrls0.rdPerTurnAround::gmean    53.481496                       # Reads before turning the bus around for writes
system.mem_ctrls0.rdPerTurnAround::stdev  2078.072579                       # Reads before turning the bus around for writes
system.mem_ctrls0.rdPerTurnAround::0-4095         1005     99.90%     99.90% # Reads before turning the bus around for writes
system.mem_ctrls0.rdPerTurnAround::65536-69631            1      0.10%    100.00% # Reads before turning the bus around for writes
system.mem_ctrls0.rdPerTurnAround::total         1006                       # Reads before turning the bus around for writes
system.mem_ctrls0.wrPerTurnAround::samples         1006                       # Writes before turning the bus around for reads
system.mem_ctrls0.wrPerTurnAround::mean     16.612326                       # Writes before turning the bus around for reads
system.mem_ctrls0.wrPerTurnAround::gmean    16.588048                       # Writes before turning the bus around for reads
system.mem_ctrls0.wrPerTurnAround::stdev     0.912493                       # Writes before turning the bus around for reads
system.mem_ctrls0.wrPerTurnAround::16             684     67.99%     67.99% # Writes before turning the bus around for reads
system.mem_ctrls0.wrPerTurnAround::17              33      3.28%     71.27% # Writes before turning the bus around for reads
system.mem_ctrls0.wrPerTurnAround::18             284     28.23%     99.50% # Writes before turning the bus around for reads
system.mem_ctrls0.wrPerTurnAround::19               5      0.50%    100.00% # Writes before turning the bus around for reads
system.mem_ctrls0.wrPerTurnAround::total         1006                       # Writes before turning the bus around for reads
system.mem_ctrls0.totQLat                  4407011750                       # Total ticks spent queuing
system.mem_ctrls0.totMemAccLat             7373130500                       # Total ticks spent from burst creation until serviced by the DRAM
system.mem_ctrls0.totBusLat                 790965000                       # Total ticks spent in databus transfers
system.mem_ctrls0.avgQLat                    27858.45                       # Average queueing delay per DRAM burst
system.mem_ctrls0.avgBusLat                   5000.00                       # Average bus latency per DRAM burst
system.mem_ctrls0.avgMemAccLat               46608.45                       # Average memory access latency per DRAM burst
system.mem_ctrls0.avgRdBW                      634.61                       # Average DRAM read bandwidth in MiByte/s
system.mem_ctrls0.avgWrBW                       67.04                       # Average achieved write bandwidth in MiByte/s
system.mem_ctrls0.avgRdBWSys                   634.65                       # Average system read bandwidth in MiByte/s
system.mem_ctrls0.avgWrBWSys                    67.17                       # Average system write bandwidth in MiByte/s
system.mem_ctrls0.peakBW                     12800.00                       # Theoretical peak bandwidth in MiByte/s
system.mem_ctrls0.busUtil                        5.48                       # Data bus utilization in percentage
system.mem_ctrls0.busUtilRead                    4.96                       # Data bus utilization in percentage for reads
system.mem_ctrls0.busUtilWrite                   0.52                       # Data bus utilization in percentage for writes
system.mem_ctrls0.avgRdQLen                      1.55                       # Average read queue length when enqueuing
system.mem_ctrls0.avgWrQLen                     12.89                       # Average write queue length when enqueuing
system.mem_ctrls0.readRowHits                   75099                       # Number of row buffer hits during reads
system.mem_ctrls0.writeRowHits                   3408                       # Number of row buffer hits during writes
system.mem_ctrls0.readRowHitRate                47.47                       # Row buffer hit rate for reads
system.mem_ctrls0.writeRowHitRate               20.35                       # Row buffer hit rate for writes
system.mem_ctrls0.avgGap                     91185.20                       # Average gap between requests
system.mem_ctrls0.pageHitRate                   44.88                       # Row buffer hit rate, read and write combined
system.mem_ctrls0_0.actEnergy               332938200                       # Energy for activate commands per rank (pJ)
system.mem_ctrls0_0.preEnergy               176960850                       # Energy for precharge commands per rank (pJ)
system.mem_ctrls0_0.readEnergy              552029100                       # Energy for read commands per rank (pJ)
system.mem_ctrls0_0.writeEnergy              41050080                       # Energy for write commands per rank (pJ)
system.mem_ctrls0_0.refreshEnergy        1236041040.000000                       # Energy for refresh commands per rank (pJ)
system.mem_ctrls0_0.actBackEnergy          1433356200                       # Energy for active background per rank (pJ)
system.mem_ctrls0_0.preBackEnergy            33459360                       # Energy for precharge background per rank (pJ)
system.mem_ctrls0_0.actPowerDownEnergy     5157513900                       # Energy for active power-down per rank (pJ)
system.mem_ctrls0_0.prePowerDownEnergy      314669280                       # Energy for precharge power-down per rank (pJ)
system.mem_ctrls0_0.selfRefreshEnergy       165222765                       # Energy for self refresh per rank (pJ)
system.mem_ctrls0_0.totalEnergy            9443648505                       # Total energy per rank (pJ)
system.mem_ctrls0_0.averagePower           591.939987                       # Core power per rank (mW)
system.mem_ctrls0_0.totalIdleTime         12722121750                       # Total Idle time Per DRAM Rank
system.mem_ctrls0_0.memoryStateTime::IDLE     21908500                       # Time in different power states
system.mem_ctrls0_0.memoryStateTime::REF    522993000                       # Time in different power states
system.mem_ctrls0_0.memoryStateTime::SREF    592571750                       # Time in different power states
system.mem_ctrls0_0.memoryStateTime::PRE_PDN    819310500                       # Time in different power states
system.mem_ctrls0_0.memoryStateTime::ACT   2686513750                       # Time in different power states
system.mem_ctrls0_0.memoryStateTime::ACT_PDN  11310239500                       # Time in different power states
system.mem_ctrls0_1.actEnergy               355343520                       # Energy for activate commands per rank (pJ)
system.mem_ctrls0_1.preEnergy               188869560                       # Energy for precharge commands per rank (pJ)
system.mem_ctrls0_1.readEnergy              577468920                       # Energy for read commands per rank (pJ)
system.mem_ctrls0_1.writeEnergy              46186560                       # Energy for write commands per rank (pJ)
system.mem_ctrls0_1.refreshEnergy        1258168080.000000                       # Energy for refresh commands per rank (pJ)
system.mem_ctrls0_1.actBackEnergy          1499538330                       # Energy for active background per rank (pJ)
system.mem_ctrls0_1.preBackEnergy            37332000                       # Energy for precharge background per rank (pJ)
system.mem_ctrls0_1.actPowerDownEnergy     5245789230                       # Energy for active power-down per rank (pJ)
system.mem_ctrls0_1.prePowerDownEnergy      289359840                       # Energy for precharge power-down per rank (pJ)
system.mem_ctrls0_1.selfRefreshEnergy        97311270                       # Energy for self refresh per rank (pJ)
system.mem_ctrls0_1.totalEnergy            9595791150                       # Total energy per rank (pJ)
system.mem_ctrls0_1.averagePower           601.483599                       # Core power per rank (mW)
system.mem_ctrls0_1.totalIdleTime         12564939250                       # Total Idle time Per DRAM Rank
system.mem_ctrls0_1.memoryStateTime::IDLE     30174250                       # Time in different power states
system.mem_ctrls0_1.memoryStateTime::REF    532532000                       # Time in different power states
system.mem_ctrls0_1.memoryStateTime::SREF    309449000                       # Time in different power states
system.mem_ctrls0_1.memoryStateTime::PRE_PDN    753365500                       # Time in different power states
system.mem_ctrls0_1.memoryStateTime::ACT   2823276750                       # Time in different power states
system.mem_ctrls0_1.memoryStateTime::ACT_PDN  11504739500                       # Time in different power states
system.mem_ctrls1.pwrStateResidencyTicks::UNDEFINED  15953537000                       # Cumulative time (in ticks) in various power states
system.mem_ctrls1.bytes_read::ruby.dir_cntrl1     10098112                       # Number of bytes read from this memory
system.mem_ctrls1.bytes_read::total          10098112                       # Number of bytes read from this memory
system.mem_ctrls1.bytes_written::ruby.dir_cntrl1      1070720                       # Number of bytes written to this memory
system.mem_ctrls1.bytes_written::total        1070720                       # Number of bytes written to this memory
system.mem_ctrls1.num_reads::ruby.dir_cntrl1       157783                       # Number of read requests responded to by this memory
system.mem_ctrls1.num_reads::total             157783                       # Number of read requests responded to by this memory
system.mem_ctrls1.num_writes::ruby.dir_cntrl1        16730                       # Number of write requests responded to by this memory
system.mem_ctrls1.num_writes::total             16730                       # Number of write requests responded to by this memory
system.mem_ctrls1.bw_read::ruby.dir_cntrl1    632970106                       # Total read bandwidth from this memory (bytes/s)
system.mem_ctrls1.bw_read::total            632970106                       # Total read bandwidth from this memory (bytes/s)
system.mem_ctrls1.bw_write::ruby.dir_cntrl1     67114897                       # Write bandwidth from this memory (bytes/s)
system.mem_ctrls1.bw_write::total            67114897                       # Write bandwidth from this memory (bytes/s)
system.mem_ctrls1.bw_total::ruby.dir_cntrl1    700085003                       # Total bandwidth to/from this memory (bytes/s)
system.mem_ctrls1.bw_total::total           700085003                       # Total bandwidth to/from this memory (bytes/s)
system.mem_ctrls1.readReqs                     157783                       # Number of read requests accepted
system.mem_ctrls1.avgNetLat                      0.00                       # Average network latency to DRAM controller
system.mem_ctrls1.writeReqs                     16730                       # Number of write requests accepted
system.mem_ctrls1.readBursts                   157783                       # Number of DRAM read bursts, including those serviced by the write queue
system.mem_ctrls1.writeBursts                   16730                       # Number of DRAM write bursts, including those merged in the write queue
system.mem_ctrls1.bytesReadDRAM              10097600                       # Total number of bytes read from DRAM
system.mem_ctrls1.bytesReadWrQ                    512                       # Total number of bytes read from write queue
system.mem_ctrls1.bytesWritten                1068864                       # Total number of bytes written to DRAM
system.mem_ctrls1.bytesReadSys               10098112                       # Total read bytes from the system interface side
system.mem_ctrls1.bytesWrittenSys             1070720                       # Total written bytes from the system interface side
system.mem_ctrls1.servicedByWrQ                     8                       # Number of DRAM read bursts serviced by the write queue
system.mem_ctrls1.mergedWrBursts                    0                       # Number of DRAM write bursts merged with an existing one
system.mem_ctrls1.neitherReadNorWriteReqs            0                       # Number of requests that are neither read nor write
system.mem_ctrls1.perBankRdBursts::0            10178                       # Per bank write bursts
system.mem_ctrls1.perBankRdBursts::1            10017                       # Per bank write bursts
system.mem_ctrls1.perBankRdBursts::2             9800                       # Per bank write bursts
system.mem_ctrls1.perBankRdBursts::3             9686                       # Per bank write bursts
system.mem_ctrls1.perBankRdBursts::4             9425                       # Per bank write bursts
system.mem_ctrls1.perBankRdBursts::5             9379                       # Per bank write bursts
system.mem_ctrls1.perBankRdBursts::6             9195                       # Per bank write bursts
system.mem_ctrls1.perBankRdBursts::7             9392                       # Per bank write bursts
system.mem_ctrls1.perBankRdBursts::8             9253                       # Per bank write bursts
system.mem_ctrls1.perBankRdBursts::9             9485                       # Per bank write bursts
system.mem_ctrls1.perBankRdBursts::10           10230                       # Per bank write bursts
system.mem_ctrls1.perBankRdBursts::11           10395                       # Per bank write bursts
system.mem_ctrls1.perBankRdBursts::12           10640                       # Per bank write bursts
system.mem_ctrls1.perBankRdBursts::13           10746                       # Per bank write bursts
system.mem_ctrls1.perBankRdBursts::14           10212                       # Per bank write bursts
system.mem_ctrls1.perBankRdBursts::15            9742                       # Per bank write bursts
system.mem_ctrls1.perBankWrBursts::0             1122                       # Per bank write bursts
system.mem_ctrls1.perBankWrBursts::1             1053                       # Per bank write bursts
system.mem_ctrls1.perBankWrBursts::2             1002                       # Per bank write bursts
system.mem_ctrls1.perBankWrBursts::3             1018                       # Per bank write bursts
system.mem_ctrls1.perBankWrBursts::4              962                       # Per bank write bursts
system.mem_ctrls1.perBankWrBursts::5              935                       # Per bank write bursts
system.mem_ctrls1.perBankWrBursts::6              846                       # Per bank write bursts
system.mem_ctrls1.perBankWrBursts::7              840                       # Per bank write bursts
system.mem_ctrls1.perBankWrBursts::8              901                       # Per bank write bursts
system.mem_ctrls1.perBankWrBursts::9             1065                       # Per bank write bursts
system.mem_ctrls1.perBankWrBursts::10            1165                       # Per bank write bursts
system.mem_ctrls1.perBankWrBursts::11            1234                       # Per bank write bursts
system.mem_ctrls1.perBankWrBursts::12            1287                       # Per bank write bursts
system.mem_ctrls1.perBankWrBursts::13            1261                       # Per bank write bursts
system.mem_ctrls1.perBankWrBursts::14            1060                       # Per bank write bursts
system.mem_ctrls1.perBankWrBursts::15             950                       # Per bank write bursts
system.mem_ctrls1.numRdRetry                        0                       # Number of times read queue was full causing retry
system.mem_ctrls1.numWrRetry                        0                       # Number of times write queue was full causing retry
system.mem_ctrls1.totGap                  15952922500                       # Total gap between requests
system.mem_ctrls1.readPktSize::0                    0                       # Read request sizes (log2)
system.mem_ctrls1.readPktSize::1                    0                       # Read request sizes (log2)
system.mem_ctrls1.readPktSize::2                    0                       # Read request sizes (log2)
system.mem_ctrls1.readPktSize::3                    0                       # Read request sizes (log2)
system.mem_ctrls1.readPktSize::4                    0                       # Read request sizes (log2)
system.mem_ctrls1.readPktSize::5                    0                       # Read request sizes (log2)
system.mem_ctrls1.readPktSize::6               157783                       # Read request sizes (log2)
system.mem_ctrls1.writePktSize::0                   0                       # Write request sizes (log2)
system.mem_ctrls1.writePktSize::1                   0                       # Write request sizes (log2)
system.mem_ctrls1.writePktSize::2                   0                       # Write request sizes (log2)
system.mem_ctrls1.writePktSize::3                   0                       # Write request sizes (log2)
system.mem_ctrls1.writePktSize::4                   0                       # Write request sizes (log2)
system.mem_ctrls1.writePktSize::5                   0                       # Write request sizes (log2)
system.mem_ctrls1.writePktSize::6               16730                       # Write request sizes (log2)
system.mem_ctrls1.rdQLenPdf::0                  78891                       # What read queue length does an incoming req see
system.mem_ctrls1.rdQLenPdf::1                  41813                       # What read queue length does an incoming req see
system.mem_ctrls1.rdQLenPdf::2                  20696                       # What read queue length does an incoming req see
system.mem_ctrls1.rdQLenPdf::3                   9804                       # What read queue length does an incoming req see
system.mem_ctrls1.rdQLenPdf::4                   4151                       # What read queue length does an incoming req see
system.mem_ctrls1.rdQLenPdf::5                   1583                       # What read queue length does an incoming req see
system.mem_ctrls1.rdQLenPdf::6                    569                       # What read queue length does an incoming req see
system.mem_ctrls1.rdQLenPdf::7                    195                       # What read queue length does an incoming req see
system.mem_ctrls1.rdQLenPdf::8                     50                       # What read queue length does an incoming req see
system.mem_ctrls1.rdQLenPdf::9                     16                       # What read queue length does an incoming req see
system.mem_ctrls1.rdQLenPdf::10                     5                       # What read queue length does an incoming req see
system.mem_ctrls1.rdQLenPdf::11                     1                       # What read queue length does an incoming req see
system.mem_ctrls1.rdQLenPdf::12                     1                       # What read queue length does an incoming req see
system.mem_ctrls1.rdQLenPdf::13                     0                       # What read queue length does an incoming req see
system.mem_ctrls1.rdQLenPdf::14                     0                       # What read queue length does an incoming req see
system.mem_ctrls1.rdQLenPdf::15                     0                       # What read queue length does an incoming req see
system.mem_ctrls1.rdQLenPdf::16                     0                       # What read queue length does an incoming req see
system.mem_ctrls1.rdQLenPdf::17                     0                       # What read queue length does an incoming req see
system.mem_ctrls1.rdQLenPdf::18                     0                       # What read queue length does an incoming req see
system.mem_ctrls1.rdQLenPdf::19                     0                       # What read queue length does an incoming req see
system.mem_ctrls1.rdQLenPdf::20                     0                       # What read queue length does an incoming req see
system.mem_ctrls1.rdQLenPdf::21                     0                       # What read queue length does an incoming req see
system.mem_ctrls1.rdQLenPdf::22                     0                       # What read queue length does an incoming req see
system.mem_ctrls1.rdQLenPdf::23                     0                       # What read queue length does an incoming req see
system.mem_ctrls1.rdQLenPdf::24                     0                       # What read queue length does an incoming req see
system.mem_ctrls1.rdQLenPdf::25                     0                       # What read queue length does an incoming req see
system.mem_ctrls1.rdQLenPdf::26                     0                       # What read queue length does an incoming req see
system.mem_ctrls1.rdQLenPdf::27                     0                       # What read queue length does an incoming req see
system.mem_ctrls1.rdQLenPdf::28                     0                       # What read queue length does an incoming req see
system.mem_ctrls1.rdQLenPdf::29                     0                       # What read queue length does an incoming req see
system.mem_ctrls1.rdQLenPdf::30                     0                       # What read queue length does an incoming req see
system.mem_ctrls1.rdQLenPdf::31                     0                       # What read queue length does an incoming req see
system.mem_ctrls1.wrQLenPdf::0                      1                       # What write queue length does an incoming req see
system.mem_ctrls1.wrQLenPdf::1                      1                       # What write queue length does an incoming req see
system.mem_ctrls1.wrQLenPdf::2                      1                       # What write queue length does an incoming req see
system.mem_ctrls1.wrQLenPdf::3                      1                       # What write queue length does an incoming req see
system.mem_ctrls1.wrQLenPdf::4                      1                       # What write queue length does an incoming req see
system.mem_ctrls1.wrQLenPdf::5                      1                       # What write queue length does an incoming req see
system.mem_ctrls1.wrQLenPdf::6                      1                       # What write queue length does an incoming req see
system.mem_ctrls1.wrQLenPdf::7                      1                       # What write queue length does an incoming req see
system.mem_ctrls1.wrQLenPdf::8                      1                       # What write queue length does an incoming req see
system.mem_ctrls1.wrQLenPdf::9                      1                       # What write queue length does an incoming req see
system.mem_ctrls1.wrQLenPdf::10                     1                       # What write queue length does an incoming req see
system.mem_ctrls1.wrQLenPdf::11                     1                       # What write queue length does an incoming req see
system.mem_ctrls1.wrQLenPdf::12                     1                       # What write queue length does an incoming req see
system.mem_ctrls1.wrQLenPdf::13                     1                       # What write queue length does an incoming req see
system.mem_ctrls1.wrQLenPdf::14                     1                       # What write queue length does an incoming req see
system.mem_ctrls1.wrQLenPdf::15                   254                       # What write queue length does an incoming req see
system.mem_ctrls1.wrQLenPdf::16                   306                       # What write queue length does an incoming req see
system.mem_ctrls1.wrQLenPdf::17                   682                       # What write queue length does an incoming req see
system.mem_ctrls1.wrQLenPdf::18                   958                       # What write queue length does an incoming req see
system.mem_ctrls1.wrQLenPdf::19                  1037                       # What write queue length does an incoming req see
system.mem_ctrls1.wrQLenPdf::20                  1038                       # What write queue length does an incoming req see
system.mem_ctrls1.wrQLenPdf::21                  1041                       # What write queue length does an incoming req see
system.mem_ctrls1.wrQLenPdf::22                  1041                       # What write queue length does an incoming req see
system.mem_ctrls1.wrQLenPdf::23                  1038                       # What write queue length does an incoming req see
system.mem_ctrls1.wrQLenPdf::24                  1040                       # What write queue length does an incoming req see
system.mem_ctrls1.wrQLenPdf::25                  1038                       # What write queue length does an incoming req see
system.mem_ctrls1.wrQLenPdf::26                  1039                       # What write queue length does an incoming req see
system.mem_ctrls1.wrQLenPdf::27                  1036                       # What write queue length does an incoming req see
system.mem_ctrls1.wrQLenPdf::28                  1031                       # What write queue length does an incoming req see
system.mem_ctrls1.wrQLenPdf::29                  1032                       # What write queue length does an incoming req see
system.mem_ctrls1.wrQLenPdf::30                  1029                       # What write queue length does an incoming req see
system.mem_ctrls1.wrQLenPdf::31                  1024                       # What write queue length does an incoming req see
system.mem_ctrls1.wrQLenPdf::32                  1026                       # What write queue length does an incoming req see
system.mem_ctrls1.wrQLenPdf::33                    22                       # What write queue length does an incoming req see
system.mem_ctrls1.wrQLenPdf::34                     2                       # What write queue length does an incoming req see
system.mem_ctrls1.wrQLenPdf::35                     1                       # What write queue length does an incoming req see
system.mem_ctrls1.wrQLenPdf::36                     0                       # What write queue length does an incoming req see
system.mem_ctrls1.wrQLenPdf::37                     0                       # What write queue length does an incoming req see
system.mem_ctrls1.wrQLenPdf::38                     0                       # What write queue length does an incoming req see
system.mem_ctrls1.wrQLenPdf::39                     0                       # What write queue length does an incoming req see
system.mem_ctrls1.wrQLenPdf::40                     0                       # What write queue length does an incoming req see
system.mem_ctrls1.wrQLenPdf::41                     0                       # What write queue length does an incoming req see
system.mem_ctrls1.wrQLenPdf::42                     0                       # What write queue length does an incoming req see
system.mem_ctrls1.wrQLenPdf::43                     0                       # What write queue length does an incoming req see
system.mem_ctrls1.wrQLenPdf::44                     0                       # What write queue length does an incoming req see
system.mem_ctrls1.wrQLenPdf::45                     0                       # What write queue length does an incoming req see
system.mem_ctrls1.wrQLenPdf::46                     0                       # What write queue length does an incoming req see
system.mem_ctrls1.wrQLenPdf::47                     0                       # What write queue length does an incoming req see
system.mem_ctrls1.wrQLenPdf::48                     0                       # What write queue length does an incoming req see
system.mem_ctrls1.wrQLenPdf::49                     0                       # What write queue length does an incoming req see
system.mem_ctrls1.wrQLenPdf::50                     0                       # What write queue length does an incoming req see
system.mem_ctrls1.wrQLenPdf::51                     0                       # What write queue length does an incoming req see
system.mem_ctrls1.wrQLenPdf::52                     0                       # What write queue length does an incoming req see
system.mem_ctrls1.wrQLenPdf::53                     0                       # What write queue length does an incoming req see
system.mem_ctrls1.wrQLenPdf::54                     0                       # What write queue length does an incoming req see
system.mem_ctrls1.wrQLenPdf::55                     0                       # What write queue length does an incoming req see
system.mem_ctrls1.wrQLenPdf::56                     0                       # What write queue length does an incoming req see
system.mem_ctrls1.wrQLenPdf::57                     0                       # What write queue length does an incoming req see
system.mem_ctrls1.wrQLenPdf::58                     0                       # What write queue length does an incoming req see
system.mem_ctrls1.wrQLenPdf::59                     0                       # What write queue length does an incoming req see
system.mem_ctrls1.wrQLenPdf::60                     0                       # What write queue length does an incoming req see
system.mem_ctrls1.wrQLenPdf::61                     0                       # What write queue length does an incoming req see
system.mem_ctrls1.wrQLenPdf::62                     0                       # What write queue length does an incoming req see
system.mem_ctrls1.wrQLenPdf::63                     0                       # What write queue length does an incoming req see
system.mem_ctrls1.bytesPerActivate::samples        96200                       # Bytes accessed per row activation
system.mem_ctrls1.bytesPerActivate::mean   116.070187                       # Bytes accessed per row activation
system.mem_ctrls1.bytesPerActivate::gmean    89.804423                       # Bytes accessed per row activation
system.mem_ctrls1.bytesPerActivate::stdev   124.919135                       # Bytes accessed per row activation
system.mem_ctrls1.bytesPerActivate::0-127        66598     69.23%     69.23% # Bytes accessed per row activation
system.mem_ctrls1.bytesPerActivate::128-255        19904     20.69%     89.92% # Bytes accessed per row activation
system.mem_ctrls1.bytesPerActivate::256-383         4028      4.19%     94.11% # Bytes accessed per row activation
system.mem_ctrls1.bytesPerActivate::384-511         2363      2.46%     96.56% # Bytes accessed per row activation
system.mem_ctrls1.bytesPerActivate::512-639         1493      1.55%     98.11% # Bytes accessed per row activation
system.mem_ctrls1.bytesPerActivate::640-767         1234      1.28%     99.40% # Bytes accessed per row activation
system.mem_ctrls1.bytesPerActivate::768-895          188      0.20%     99.59% # Bytes accessed per row activation
system.mem_ctrls1.bytesPerActivate::896-1023          140      0.15%     99.74% # Bytes accessed per row activation
system.mem_ctrls1.bytesPerActivate::1024-1151          252      0.26%    100.00% # Bytes accessed per row activation
system.mem_ctrls1.bytesPerActivate::total        96200                       # Bytes accessed per row activation
system.mem_ctrls1.rdPerTurnAround::samples         1007                       # Reads before turning the bus around for writes
system.mem_ctrls1.rdPerTurnAround::mean    156.659384                       # Reads before turning the bus around for writes
system.mem_ctrls1.rdPerTurnAround::gmean    52.798448                       # Reads before turning the bus around for writes
system.mem_ctrls1.rdPerTurnAround::stdev  2038.244040                       # Reads before turning the bus around for writes
system.mem_ctrls1.rdPerTurnAround::0-2047         1005     99.80%     99.80% # Reads before turning the bus around for writes
system.mem_ctrls1.rdPerTurnAround::2048-4095            1      0.10%     99.90% # Reads before turning the bus around for writes
system.mem_ctrls1.rdPerTurnAround::63488-65535            1      0.10%    100.00% # Reads before turning the bus around for writes
system.mem_ctrls1.rdPerTurnAround::total         1007                       # Reads before turning the bus around for writes
system.mem_ctrls1.wrPerTurnAround::samples         1007                       # Writes before turning the bus around for reads
system.mem_ctrls1.wrPerTurnAround::mean     16.584906                       # Writes before turning the bus around for reads
system.mem_ctrls1.wrPerTurnAround::gmean    16.561304                       # Writes before turning the bus around for reads
system.mem_ctrls1.wrPerTurnAround::stdev     0.900900                       # Writes before turning the bus around for reads
system.mem_ctrls1.wrPerTurnAround::16             694     68.92%     68.92% # Writes before turning the bus around for reads
system.mem_ctrls1.wrPerTurnAround::17              44      4.37%     73.29% # Writes before turning the bus around for reads
system.mem_ctrls1.wrPerTurnAround::18             264     26.22%     99.50% # Writes before turning the bus around for reads
system.mem_ctrls1.wrPerTurnAround::19               4      0.40%     99.90% # Writes before turning the bus around for reads
system.mem_ctrls1.wrPerTurnAround::21               1      0.10%    100.00% # Writes before turning the bus around for reads
system.mem_ctrls1.wrPerTurnAround::total         1007                       # Writes before turning the bus around for reads
system.mem_ctrls1.totQLat                  4331570250                       # Total ticks spent queuing
system.mem_ctrls1.totMemAccLat             7289851500                       # Total ticks spent from burst creation until serviced by the DRAM
system.mem_ctrls1.totBusLat                 788875000                       # Total ticks spent in databus transfers
system.mem_ctrls1.avgQLat                    27454.10                       # Average queueing delay per DRAM burst
system.mem_ctrls1.avgBusLat                   5000.00                       # Average bus latency per DRAM burst
system.mem_ctrls1.avgMemAccLat               46204.10                       # Average memory access latency per DRAM burst
system.mem_ctrls1.avgRdBW                      632.94                       # Average DRAM read bandwidth in MiByte/s
system.mem_ctrls1.avgWrBW                       67.00                       # Average achieved write bandwidth in MiByte/s
system.mem_ctrls1.avgRdBWSys                   632.97                       # Average system read bandwidth in MiByte/s
system.mem_ctrls1.avgWrBWSys                    67.11                       # Average system write bandwidth in MiByte/s
system.mem_ctrls1.peakBW                     12800.00                       # Theoretical peak bandwidth in MiByte/s
system.mem_ctrls1.busUtil                        5.47                       # Data bus utilization in percentage
system.mem_ctrls1.busUtilRead                    4.94                       # Data bus utilization in percentage for reads
system.mem_ctrls1.busUtilWrite                   0.52                       # Data bus utilization in percentage for writes
system.mem_ctrls1.avgRdQLen                      1.54                       # Average read queue length when enqueuing
system.mem_ctrls1.avgWrQLen                     13.06                       # Average write queue length when enqueuing
system.mem_ctrls1.readRowHits                   74735                       # Number of row buffer hits during reads
system.mem_ctrls1.writeRowHits                   3538                       # Number of row buffer hits during writes
system.mem_ctrls1.readRowHitRate                47.37                       # Row buffer hit rate for reads
system.mem_ctrls1.writeRowHitRate               21.15                       # Row buffer hit rate for writes
system.mem_ctrls1.avgGap                     91413.95                       # Average gap between requests
system.mem_ctrls1.pageHitRate                   44.85                       # Row buffer hit rate, read and write combined
system.mem_ctrls1_0.actEnergy               331810080                       # Energy for activate commands per rank (pJ)
system.mem_ctrls1_0.preEnergy               176353650                       # Energy for precharge commands per rank (pJ)
system.mem_ctrls1_0.readEnergy              550294080                       # Energy for read commands per rank (pJ)
system.mem_ctrls1_0.writeEnergy              40601160                       # Energy for write commands per rank (pJ)
system.mem_ctrls1_0.refreshEnergy        1229894640.000000                       # Energy for refresh commands per rank (pJ)
system.mem_ctrls1_0.actBackEnergy          1433136750                       # Energy for active background per rank (pJ)
system.mem_ctrls1_0.preBackEnergy            32794080                       # Energy for precharge background per rank (pJ)
system.mem_ctrls1_0.actPowerDownEnergy     5151083160                       # Energy for active power-down per rank (pJ)
system.mem_ctrls1_0.prePowerDownEnergy      308574240                       # Energy for precharge power-down per rank (pJ)
system.mem_ctrls1_0.selfRefreshEnergy       169647735                       # Energy for self refresh per rank (pJ)
system.mem_ctrls1_0.totalEnergy            9424784565                       # Total energy per rank (pJ)
system.mem_ctrls1_0.averagePower           590.764560                       # Core power per rank (mW)
system.mem_ctrls1_0.totalIdleTime         12723726750                       # Total Idle time Per DRAM Rank
system.mem_ctrls1_0.memoryStateTime::IDLE     20610250                       # Time in different power states
system.mem_ctrls1_0.memoryStateTime::REF    520566000                       # Time in different power states
system.mem_ctrls1_0.memoryStateTime::SREF    624160000                       # Time in different power states
system.mem_ctrls1_0.memoryStateTime::PRE_PDN    803438500                       # Time in different power states
system.mem_ctrls1_0.memoryStateTime::ACT   2688209750                       # Time in different power states
system.mem_ctrls1_0.memoryStateTime::ACT_PDN  11296552500                       # Time in different power states
system.mem_ctrls1_1.actEnergy               355079340                       # Energy for activate commands per rank (pJ)
system.mem_ctrls1_1.preEnergy               188725350                       # Energy for precharge commands per rank (pJ)
system.mem_ctrls1_1.readEnergy              576219420                       # Energy for read commands per rank (pJ)
system.mem_ctrls1_1.writeEnergy              46578060                       # Energy for write commands per rank (pJ)
system.mem_ctrls1_1.refreshEnergy        1255094880.000000                       # Energy for refresh commands per rank (pJ)
system.mem_ctrls1_1.actBackEnergy          1498876560                       # Energy for active background per rank (pJ)
system.mem_ctrls1_1.preBackEnergy            34424640                       # Energy for precharge background per rank (pJ)
system.mem_ctrls1_1.actPowerDownEnergy     5261559420                       # Energy for active power-down per rank (pJ)
system.mem_ctrls1_1.prePowerDownEnergy      273807840                       # Energy for precharge power-down per rank (pJ)
system.mem_ctrls1_1.selfRefreshEnergy        99152235                       # Energy for self refresh per rank (pJ)
system.mem_ctrls1_1.totalEnergy            9589691475                       # Total energy per rank (pJ)
system.mem_ctrls1_1.averagePower           601.101259                       # Core power per rank (mW)
system.mem_ctrls1_1.totalIdleTime         12576967750                       # Total Idle time Per DRAM Rank
system.mem_ctrls1_1.memoryStateTime::IDLE     21830750                       # Time in different power states
system.mem_ctrls1_1.memoryStateTime::REF    531262000                       # Time in different power states
system.mem_ctrls1_1.memoryStateTime::SREF    324939000                       # Time in different power states
system.mem_ctrls1_1.memoryStateTime::PRE_PDN    712855250                       # Time in different power states
system.mem_ctrls1_1.memoryStateTime::ACT   2823313750                       # Time in different power states
system.mem_ctrls1_1.memoryStateTime::ACT_PDN  11539336250                       # Time in different power states
system.mem_ctrls2.pwrStateResidencyTicks::UNDEFINED  15953537000                       # Cumulative time (in ticks) in various power states
system.mem_ctrls2.bytes_read::ruby.dir_cntrl2     10110784                       # Number of bytes read from this memory
system.mem_ctrls2.bytes_read::total          10110784                       # Number of bytes read from this memory
system.mem_ctrls2.bytes_written::ruby.dir_cntrl2      1072064                       # Number of bytes written to this memory
system.mem_ctrls2.bytes_written::total        1072064                       # Number of bytes written to this memory
system.mem_ctrls2.num_reads::ruby.dir_cntrl2       157981                       # Number of read requests responded to by this memory
system.mem_ctrls2.num_reads::total             157981                       # Number of read requests responded to by this memory
system.mem_ctrls2.num_writes::ruby.dir_cntrl2        16751                       # Number of write requests responded to by this memory
system.mem_ctrls2.num_writes::total             16751                       # Number of write requests responded to by this memory
system.mem_ctrls2.bw_read::ruby.dir_cntrl2    633764412                       # Total read bandwidth from this memory (bytes/s)
system.mem_ctrls2.bw_read::total            633764412                       # Total read bandwidth from this memory (bytes/s)
system.mem_ctrls2.bw_write::ruby.dir_cntrl2     67199142                       # Write bandwidth from this memory (bytes/s)
system.mem_ctrls2.bw_write::total            67199142                       # Write bandwidth from this memory (bytes/s)
system.mem_ctrls2.bw_total::ruby.dir_cntrl2    700963554                       # Total bandwidth to/from this memory (bytes/s)
system.mem_ctrls2.bw_total::total           700963554                       # Total bandwidth to/from this memory (bytes/s)
system.mem_ctrls2.readReqs                     157981                       # Number of read requests accepted
system.mem_ctrls2.avgNetLat                      0.00                       # Average network latency to DRAM controller
system.mem_ctrls2.writeReqs                     16751                       # Number of write requests accepted
system.mem_ctrls2.readBursts                   157981                       # Number of DRAM read bursts, including those serviced by the write queue
system.mem_ctrls2.writeBursts                   16751                       # Number of DRAM write bursts, including those merged in the write queue
system.mem_ctrls2.bytesReadDRAM              10110272                       # Total number of bytes read from DRAM
system.mem_ctrls2.bytesReadWrQ                    512                       # Total number of bytes read from write queue
system.mem_ctrls2.bytesWritten                1070656                       # Total number of bytes written to DRAM
system.mem_ctrls2.bytesReadSys               10110784                       # Total read bytes from the system interface side
system.mem_ctrls2.bytesWrittenSys             1072064                       # Total written bytes from the system interface side
system.mem_ctrls2.servicedByWrQ                     8                       # Number of DRAM read bursts serviced by the write queue
system.mem_ctrls2.mergedWrBursts                    0                       # Number of DRAM write bursts merged with an existing one
system.mem_ctrls2.neitherReadNorWriteReqs            0                       # Number of requests that are neither read nor write
system.mem_ctrls2.perBankRdBursts::0            10157                       # Per bank write bursts
system.mem_ctrls2.perBankRdBursts::1             9998                       # Per bank write bursts
system.mem_ctrls2.perBankRdBursts::2             9838                       # Per bank write bursts
system.mem_ctrls2.perBankRdBursts::3             9610                       # Per bank write bursts
system.mem_ctrls2.perBankRdBursts::4             9476                       # Per bank write bursts
system.mem_ctrls2.perBankRdBursts::5             9338                       # Per bank write bursts
system.mem_ctrls2.perBankRdBursts::6             9181                       # Per bank write bursts
system.mem_ctrls2.perBankRdBursts::7             9442                       # Per bank write bursts
system.mem_ctrls2.perBankRdBursts::8             9256                       # Per bank write bursts
system.mem_ctrls2.perBankRdBursts::9             9467                       # Per bank write bursts
system.mem_ctrls2.perBankRdBursts::10           10275                       # Per bank write bursts
system.mem_ctrls2.perBankRdBursts::11           10454                       # Per bank write bursts
system.mem_ctrls2.perBankRdBursts::12           10615                       # Per bank write bursts
system.mem_ctrls2.perBankRdBursts::13           10832                       # Per bank write bursts
system.mem_ctrls2.perBankRdBursts::14           10261                       # Per bank write bursts
system.mem_ctrls2.perBankRdBursts::15            9773                       # Per bank write bursts
system.mem_ctrls2.perBankWrBursts::0             1111                       # Per bank write bursts
system.mem_ctrls2.perBankWrBursts::1             1043                       # Per bank write bursts
system.mem_ctrls2.perBankWrBursts::2             1035                       # Per bank write bursts
system.mem_ctrls2.perBankWrBursts::3              977                       # Per bank write bursts
system.mem_ctrls2.perBankWrBursts::4              973                       # Per bank write bursts
system.mem_ctrls2.perBankWrBursts::5              930                       # Per bank write bursts
system.mem_ctrls2.perBankWrBursts::6              836                       # Per bank write bursts
system.mem_ctrls2.perBankWrBursts::7              856                       # Per bank write bursts
system.mem_ctrls2.perBankWrBursts::8              904                       # Per bank write bursts
system.mem_ctrls2.perBankWrBursts::9             1029                       # Per bank write bursts
system.mem_ctrls2.perBankWrBursts::10            1200                       # Per bank write bursts
system.mem_ctrls2.perBankWrBursts::11            1241                       # Per bank write bursts
system.mem_ctrls2.perBankWrBursts::12            1286                       # Per bank write bursts
system.mem_ctrls2.perBankWrBursts::13            1289                       # Per bank write bursts
system.mem_ctrls2.perBankWrBursts::14            1046                       # Per bank write bursts
system.mem_ctrls2.perBankWrBursts::15             973                       # Per bank write bursts
system.mem_ctrls2.numRdRetry                        0                       # Number of times read queue was full causing retry
system.mem_ctrls2.numWrRetry                        0                       # Number of times write queue was full causing retry
system.mem_ctrls2.totGap                  15952575500                       # Total gap between requests
system.mem_ctrls2.readPktSize::0                    0                       # Read request sizes (log2)
system.mem_ctrls2.readPktSize::1                    0                       # Read request sizes (log2)
system.mem_ctrls2.readPktSize::2                    0                       # Read request sizes (log2)
system.mem_ctrls2.readPktSize::3                    0                       # Read request sizes (log2)
system.mem_ctrls2.readPktSize::4                    0                       # Read request sizes (log2)
system.mem_ctrls2.readPktSize::5                    0                       # Read request sizes (log2)
system.mem_ctrls2.readPktSize::6               157981                       # Read request sizes (log2)
system.mem_ctrls2.writePktSize::0                   0                       # Write request sizes (log2)
system.mem_ctrls2.writePktSize::1                   0                       # Write request sizes (log2)
system.mem_ctrls2.writePktSize::2                   0                       # Write request sizes (log2)
system.mem_ctrls2.writePktSize::3                   0                       # Write request sizes (log2)
system.mem_ctrls2.writePktSize::4                   0                       # Write request sizes (log2)
system.mem_ctrls2.writePktSize::5                   0                       # Write request sizes (log2)
system.mem_ctrls2.writePktSize::6               16751                       # Write request sizes (log2)
system.mem_ctrls2.rdQLenPdf::0                  78755                       # What read queue length does an incoming req see
system.mem_ctrls2.rdQLenPdf::1                  41451                       # What read queue length does an incoming req see
system.mem_ctrls2.rdQLenPdf::2                  20887                       # What read queue length does an incoming req see
system.mem_ctrls2.rdQLenPdf::3                   9960                       # What read queue length does an incoming req see
system.mem_ctrls2.rdQLenPdf::4                   4297                       # What read queue length does an incoming req see
system.mem_ctrls2.rdQLenPdf::5                   1699                       # What read queue length does an incoming req see
system.mem_ctrls2.rdQLenPdf::6                    623                       # What read queue length does an incoming req see
system.mem_ctrls2.rdQLenPdf::7                    207                       # What read queue length does an incoming req see
system.mem_ctrls2.rdQLenPdf::8                     72                       # What read queue length does an incoming req see
system.mem_ctrls2.rdQLenPdf::9                     18                       # What read queue length does an incoming req see
system.mem_ctrls2.rdQLenPdf::10                     3                       # What read queue length does an incoming req see
system.mem_ctrls2.rdQLenPdf::11                     1                       # What read queue length does an incoming req see
system.mem_ctrls2.rdQLenPdf::12                     0                       # What read queue length does an incoming req see
system.mem_ctrls2.rdQLenPdf::13                     0                       # What read queue length does an incoming req see
system.mem_ctrls2.rdQLenPdf::14                     0                       # What read queue length does an incoming req see
system.mem_ctrls2.rdQLenPdf::15                     0                       # What read queue length does an incoming req see
system.mem_ctrls2.rdQLenPdf::16                     0                       # What read queue length does an incoming req see
system.mem_ctrls2.rdQLenPdf::17                     0                       # What read queue length does an incoming req see
system.mem_ctrls2.rdQLenPdf::18                     0                       # What read queue length does an incoming req see
system.mem_ctrls2.rdQLenPdf::19                     0                       # What read queue length does an incoming req see
system.mem_ctrls2.rdQLenPdf::20                     0                       # What read queue length does an incoming req see
system.mem_ctrls2.rdQLenPdf::21                     0                       # What read queue length does an incoming req see
system.mem_ctrls2.rdQLenPdf::22                     0                       # What read queue length does an incoming req see
system.mem_ctrls2.rdQLenPdf::23                     0                       # What read queue length does an incoming req see
system.mem_ctrls2.rdQLenPdf::24                     0                       # What read queue length does an incoming req see
system.mem_ctrls2.rdQLenPdf::25                     0                       # What read queue length does an incoming req see
system.mem_ctrls2.rdQLenPdf::26                     0                       # What read queue length does an incoming req see
system.mem_ctrls2.rdQLenPdf::27                     0                       # What read queue length does an incoming req see
system.mem_ctrls2.rdQLenPdf::28                     0                       # What read queue length does an incoming req see
system.mem_ctrls2.rdQLenPdf::29                     0                       # What read queue length does an incoming req see
system.mem_ctrls2.rdQLenPdf::30                     0                       # What read queue length does an incoming req see
system.mem_ctrls2.rdQLenPdf::31                     0                       # What read queue length does an incoming req see
system.mem_ctrls2.wrQLenPdf::0                      1                       # What write queue length does an incoming req see
system.mem_ctrls2.wrQLenPdf::1                      1                       # What write queue length does an incoming req see
system.mem_ctrls2.wrQLenPdf::2                      1                       # What write queue length does an incoming req see
system.mem_ctrls2.wrQLenPdf::3                      1                       # What write queue length does an incoming req see
system.mem_ctrls2.wrQLenPdf::4                      1                       # What write queue length does an incoming req see
system.mem_ctrls2.wrQLenPdf::5                      1                       # What write queue length does an incoming req see
system.mem_ctrls2.wrQLenPdf::6                      1                       # What write queue length does an incoming req see
system.mem_ctrls2.wrQLenPdf::7                      1                       # What write queue length does an incoming req see
system.mem_ctrls2.wrQLenPdf::8                      1                       # What write queue length does an incoming req see
system.mem_ctrls2.wrQLenPdf::9                      1                       # What write queue length does an incoming req see
system.mem_ctrls2.wrQLenPdf::10                     1                       # What write queue length does an incoming req see
system.mem_ctrls2.wrQLenPdf::11                     1                       # What write queue length does an incoming req see
system.mem_ctrls2.wrQLenPdf::12                     1                       # What write queue length does an incoming req see
system.mem_ctrls2.wrQLenPdf::13                     1                       # What write queue length does an incoming req see
system.mem_ctrls2.wrQLenPdf::14                     1                       # What write queue length does an incoming req see
system.mem_ctrls2.wrQLenPdf::15                   275                       # What write queue length does an incoming req see
system.mem_ctrls2.wrQLenPdf::16                   311                       # What write queue length does an incoming req see
system.mem_ctrls2.wrQLenPdf::17                   657                       # What write queue length does an incoming req see
system.mem_ctrls2.wrQLenPdf::18                   949                       # What write queue length does an incoming req see
system.mem_ctrls2.wrQLenPdf::19                  1031                       # What write queue length does an incoming req see
system.mem_ctrls2.wrQLenPdf::20                  1047                       # What write queue length does an incoming req see
system.mem_ctrls2.wrQLenPdf::21                  1050                       # What write queue length does an incoming req see
system.mem_ctrls2.wrQLenPdf::22                  1047                       # What write queue length does an incoming req see
[...]
system.ruby.L2Cache_Controller.M.L1_GET_INSTR::total           56                      
system.ruby.L2Cache_Controller.M.L1_GETS |       10626      6.16%      6.16% |       10771      6.24%     12.40% |       10555      6.12%     18.52% |       10794      6.26%     24.77% |       10521      6.10%     30.87% |       10274      5.95%     36.83% |       10432      6.05%     42.87% |       10648      6.17%     49.04% |       10602      6.14%     55.19% |       10459      6.06%     61.25% |       11879      6.88%     68.13% |       11557      6.70%     74.83% |       11085      6.42%     81.25% |       11155      6.46%     87.72% |       11069      6.42%     94.13% |       10120      5.87%    100.00%
system.ruby.L2Cache_Controller.M.L1_GETS::total       172547                      
system.ruby.L2Cache_Controller.M.L1_GETX |        1257      6.19%      6.19% |        1327      6.53%     12.72% |        1259      6.20%     18.92% |        1167      5.75%     24.67% |        1251      6.16%     30.83% |        1190      5.86%     36.69% |        1154      5.68%     42.37% |        1322      6.51%     48.88% |        1225      6.03%     54.91% |        1269      6.25%     61.16% |        1849      9.10%     70.26% |        1197      5.89%     76.15% |        1205      5.93%     82.09% |        1115      5.49%     87.58% |        1247      6.14%     93.72% |        1276      6.28%    100.00%
system.ruby.L2Cache_Controller.M.L1_GETX::total        20310                      
system.ruby.L2Cache_Controller.M.L2_Replacement |        4204      6.33%      6.33% |        4177      6.29%     12.62% |        4098      6.17%     18.79% |        4182      6.30%     25.08% |        4045      6.09%     31.17% |        4142      6.24%     37.41% |        4118      6.20%     43.61% |        4094      6.16%     49.77% |        4184      6.30%     56.07% |        4062      6.12%     62.19% |        4126      6.21%     68.40% |        4087      6.15%     74.55% |        4201      6.32%     80.88% |        4236      6.38%     87.26% |        4290      6.46%     93.72% |        4174      6.28%    100.00%
system.ruby.L2Cache_Controller.M.L2_Replacement::total        66420                      
system.ruby.L2Cache_Controller.M.L2_Replacement_clean |        3001      6.29%      6.29% |        2867      6.01%     12.30% |        2847      5.97%     18.26% |        2936      6.15%     24.41% |        2900      6.08%     30.49% |        2949      6.18%     36.67% |        2981      6.25%     42.92% |        3025      6.34%     49.26% |        3101      6.50%     55.75% |        2896      6.07%     61.82% |        3000      6.29%     68.11% |        3022      6.33%     74.44% |        3056      6.40%     80.84% |        3071      6.44%     87.28% |        3013      6.31%     93.59% |        3058      6.41%    100.00%
system.ruby.L2Cache_Controller.M.L2_Replacement_clean::total        47723                      
system.ruby.L2Cache_Controller.MT.L1_GETS |          70      3.97%      3.97% |          70      3.97%      7.94% |          98      5.56%     13.49% |          98      5.56%     19.05% |          98      5.56%     24.60% |         140      7.94%     32.54% |         140      7.94%     40.48% |         140      7.94%     48.41% |         138      7.82%     56.24% |         138      7.82%     64.06% |         136      7.71%     71.77% |         134      7.60%     79.37% |         112      6.35%     85.71% |         112      6.35%     92.06% |          70      3.97%     96.03% |          70      3.97%    100.00%
system.ruby.L2Cache_Controller.MT.L1_GETS::total         1764                      
system.ruby.L2Cache_Controller.MT.L1_GETX |           0      0.00%      0.00% |           0      0.00%      0.00% |           0      0.00%      0.00% |           0      0.00%      0.00% |           0      0.00%      0.00% |           0      0.00%      0.00% |           0      0.00%      0.00% |           0      0.00%      0.00% |           1     14.29%     14.29% |           1     14.29%     28.57% |           2     28.57%     57.14% |           3     42.86%    100.00% |           0      0.00%    100.00% |           0      0.00%    100.00% |           0      0.00%    100.00% |           0      0.00%    100.00%
system.ruby.L2Cache_Controller.MT.L1_GETX::total            7                      
system.ruby.L2Cache_Controller.MT.L1_PUTX |       49168      6.23%      6.23% |       49216      6.24%     12.48% |       48711      6.18%     18.65% |       49228      6.24%     24.89% |       48775      6.18%     31.08% |       48654      6.17%     37.25% |       48841      6.19%     43.44% |       49237      6.24%     49.68% |       49238      6.24%     55.93% |       48821      6.19%     62.12% |       50949      6.46%     68.58% |       49991      6.34%     74.92% |       49767      6.31%     81.23% |       49718      6.30%     87.53% |       49622      6.29%     93.83% |       48697      6.17%    100.00%
system.ruby.L2Cache_Controller.MT.L1_PUTX::total       788633                      
system.ruby.L2Cache_Controller.MT.L2_Replacement |           6      5.88%      5.88% |           4      3.92%      9.80% |           8      7.84%     17.65% |           9      8.82%     26.47% |           8      7.84%     34.31% |           6      5.88%     40.20% |           7      6.86%     47.06% |          11     10.78%     57.84% |           7      6.86%     64.71% |           4      3.92%     68.63% |           8      7.84%     76.47% |           6      5.88%     82.35% |           5      4.90%     87.25% |           3      2.94%     90.20% |           6      5.88%     96.08% |           4      3.92%    100.00%
system.ruby.L2Cache_Controller.MT.L2_Replacement::total          102                      
system.ruby.L2Cache_Controller.MT.L2_Replacement_clean |          18      4.85%      4.85% |          22      5.93%     10.78% |          23      6.20%     16.98% |          25      6.74%     23.72% |          19      5.12%     28.84% |          21      5.66%     34.50% |          18      4.85%     39.35% |          19      5.12%     44.47% |          23      6.20%     50.67% |          26      7.01%     57.68% |          24      6.47%     64.15% |          27      7.28%     71.43% |          25      6.74%     78.17% |          28      7.55%     85.71% |          28      7.55%     93.26% |          25      6.74%    100.00%
system.ruby.L2Cache_Controller.MT.L2_Replacement_clean::total          371                      
system.ruby.L2Cache_Controller.M_I.L1_GET_INSTR |           1     50.00%     50.00% |           0      0.00%     50.00% |           1     50.00%    100.00% |           0      0.00%    100.00% |           0      0.00%    100.00% |           0      0.00%    100.00% |           0      0.00%    100.00% |           0      0.00%    100.00% |           0      0.00%    100.00% |           0      0.00%    100.00% |           0      0.00%    100.00% |           0      0.00%    100.00% |           0      0.00%    100.00% |           0      0.00%    100.00% |           0      0.00%    100.00% |           0      0.00%    100.00%
system.ruby.L2Cache_Controller.M_I.L1_GET_INSTR::total            2                      
system.ruby.L2Cache_Controller.M_I.L1_GETS |           0      0.00%      0.00% |           0      0.00%      0.00% |           0      0.00%      0.00% |           0      0.00%      0.00% |           0      0.00%      0.00% |           0      0.00%      0.00% |           0      0.00%      0.00% |           0      0.00%      0.00% |           0      0.00%      0.00% |           0      0.00%      0.00% |           1     50.00%     50.00% |           0      0.00%     50.00% |           0      0.00%     50.00% |           0      0.00%     50.00% |           1     50.00%    100.00% |           0      0.00%    100.00%
system.ruby.L2Cache_Controller.M_I.L1_GETS::total            2                      
system.ruby.L2Cache_Controller.M_I.Mem_Ack |        7806      6.29%      6.29% |        7693      6.20%     12.50% |        7594      6.12%     18.62% |        7716      6.22%     24.84% |        7571      6.10%     30.94% |        7748      6.25%     37.19% |        7724      6.23%     43.42% |        7733      6.23%     49.65% |        7975      6.43%     56.08% |        7469      6.02%     62.10% |        7681      6.19%     68.30% |        7723      6.23%     74.52% |        7868      6.34%     80.87% |        7913      6.38%     87.25% |        7988      6.44%     93.69% |        7830      6.31%    100.00%
system.ruby.L2Cache_Controller.M_I.Mem_Ack::total       124032                      
system.ruby.L2Cache_Controller.MT_I.WB_Data |           1      2.78%      2.78% |           2      5.56%      8.33% |           3      8.33%     16.67% |           4     11.11%     27.78% |           4     11.11%     38.89% |           2      5.56%     44.44% |           3      8.33%     52.78% |           3      8.33%     61.11% |           2      5.56%     66.67% |           2      5.56%     72.22% |           2      5.56%     77.78% |           2      5.56%     83.33% |           2      5.56%     88.89% |           0      0.00%     88.89% |           1      2.78%     91.67% |           3      8.33%    100.00%
system.ruby.L2Cache_Controller.MT_I.WB_Data::total           36                      
system.ruby.L2Cache_Controller.MT_I.Ack_all |           5      7.58%      7.58% |           2      3.03%     10.61% |           5      7.58%     18.18% |           5      7.58%     25.76% |           4      6.06%     31.82% |           4      6.06%     37.88% |           4      6.06%     43.94% |           8     12.12%     56.06% |           5      7.58%     63.64% |           2      3.03%     66.67% |           6      9.09%     75.76% |           4      6.06%     81.82% |           3      4.55%     86.36% |           3      4.55%     90.91% |           5      7.58%     98.48% |           1      1.52%    100.00%
system.ruby.L2Cache_Controller.MT_I.Ack_all::total           66                      
system.ruby.L2Cache_Controller.MCT_I.WB_Data |          18      5.39%      5.39% |          20      5.99%     11.38% |          23      6.89%     18.26% |          20      5.99%     24.25% |          15      4.49%     28.74% |          20      5.99%     34.73% |          15      4.49%     39.22% |          18      5.39%     44.61% |          20      5.99%     50.60% |          23      6.89%     57.49% |          21      6.29%     63.77% |          25      7.49%     71.26% |          21      6.29%     77.54% |          26      7.78%     85.33% |          25      7.49%     92.81% |          24      7.19%    100.00%
system.ruby.L2Cache_Controller.MCT_I.WB_Data::total          334                      
system.ruby.L2Cache_Controller.MCT_I.Ack_all |           0      0.00%      0.00% |           2      5.41%      5.41% |           0      0.00%      5.41% |           5     13.51%     18.92% |           4     10.81%     29.73% |           1      2.70%     32.43% |           3      8.11%     40.54% |           1      2.70%     43.24% |           3      8.11%     51.35% |           3      8.11%     59.46% |           3      8.11%     67.57% |           2      5.41%     72.97% |           4     10.81%     83.78% |           2      5.41%     89.19% |           3      8.11%     97.30% |           1      2.70%    100.00%
system.ruby.L2Cache_Controller.MCT_I.Ack_all::total           37                      
system.ruby.L2Cache_Controller.I_I.Ack_all |         576      6.14%      6.14% |         622      6.63%     12.77% |         618      6.59%     19.35% |         560      5.97%     25.32% |         596      6.35%     31.67% |         628      6.69%     38.37% |         598      6.37%     44.74% |         580      6.18%     50.92% |         657      7.00%     57.92% |         479      5.10%     63.03% |         520      5.54%     68.57% |         581      6.19%     74.76% |         579      6.17%     80.93% |         573      6.11%     87.04% |         650      6.93%     93.97% |         566      6.03%    100.00%
system.ruby.L2Cache_Controller.I_I.Ack_all::total         9383                      
system.ruby.L2Cache_Controller.S_I.Ack   |           1      3.03%      3.03% |           1      3.03%      6.06% |           0      0.00%      6.06% |           4     12.12%     18.18% |           3      9.09%     27.27% |           2      6.06%     33.33% |           2      6.06%     39.39% |           4     12.12%     51.52% |           3      9.09%     60.61% |           2      6.06%     66.67% |           3      9.09%     75.76% |           0      0.00%     75.76% |           2      6.06%     81.82% |           2      6.06%     87.88% |           1      3.03%     90.91% |           3      9.09%    100.00%
system.ruby.L2Cache_Controller.S_I.Ack::total           33                      
system.ruby.L2Cache_Controller.S_I.Ack_all |           1      3.03%      3.03% |           1      3.03%      6.06% |           0      0.00%      6.06% |           4     12.12%     18.18% |           3      9.09%     27.27% |           2      6.06%     33.33% |           2      6.06%     39.39% |           4     12.12%     51.52% |           3      9.09%     60.61% |           2      6.06%     66.67% |           3      9.09%     75.76% |           0      0.00%     75.76% |           2      6.06%     81.82% |           2      6.06%     87.88% |           1      3.03%     90.91% |           3      9.09%    100.00%
system.ruby.L2Cache_Controller.S_I.Ack_all::total           33                      
system.ruby.L2Cache_Controller.ISS.Mem_Data |       29297      6.27%      6.27% |       29050      6.21%     12.48% |       28785      6.16%     18.64% |       29212      6.25%     24.88% |       28950      6.19%     31.08% |       29168      6.24%     37.32% |       29231      6.25%     43.57% |       29236      6.25%     49.82% |       29431      6.29%     56.12% |       29140      6.23%     62.35% |       29236      6.25%     68.60% |       29278      6.26%     74.86% |       29506      6.31%     81.18% |       29436      6.30%     87.47% |       29291      6.27%     93.74% |       29283      6.26%    100.00%
system.ruby.L2Cache_Controller.ISS.Mem_Data::total       467530                      
system.ruby.L2Cache_Controller.IS.Mem_Data |        1347      6.35%      6.35% |        1367      6.44%     12.79% |        1501      7.07%     19.87% |        1291      6.09%     25.95% |        1352      6.37%     32.32% |        1340      6.32%     38.64% |        1282      6.04%     44.68% |        1291      6.09%     50.77% |        1359      6.41%     57.17% |        1160      5.47%     62.64% |        1250      5.89%     68.53% |        1272      6.00%     74.53% |        1230      5.80%     80.33% |        1306      6.16%     86.48% |        1518      7.15%     93.64% |        1350      6.36%    100.00%
system.ruby.L2Cache_Controller.IS.Mem_Data::total        21216                      
system.ruby.L2Cache_Controller.IM.Mem_Data |        8912      6.22%      6.22% |        8992      6.28%     12.50% |        9035      6.31%     18.80% |        8993      6.28%     25.08% |        8989      6.27%     31.36% |        8974      6.26%     37.62% |        8976      6.27%     43.89% |        8980      6.27%     50.16% |        8923      6.23%     56.38% |        8902      6.21%     62.60% |        8937      6.24%     68.84% |        8911      6.22%     75.06% |        8907      6.22%     81.27% |        8948      6.25%     87.52% |        8939      6.24%     93.76% |        8939      6.24%    100.00%
system.ruby.L2Cache_Controller.IM.Mem_Data::total       143257                      
system.ruby.L2Cache_Controller.SS_MB.Exclusive_Unblock |          42      3.92%      3.92% |          42      3.92%      7.84% |          70      6.54%     14.38% |          56      5.23%     19.61% |          56      5.23%     24.84% |          84      7.84%     32.68% |          84      7.84%     40.52% |          84      7.84%     48.37% |          83      7.75%     56.12% |          83      7.75%     63.87% |          82      7.66%     71.52% |          81      7.56%     79.08% |          70      6.54%     85.62% |          70      6.54%     92.16% |          42      3.92%     96.08% |          42      3.92%    100.00%
system.ruby.L2Cache_Controller.SS_MB.Exclusive_Unblock::total         1071                      
system.ruby.L2Cache_Controller.MT_MB.Exclusive_Unblock |       50092      6.23%      6.23% |       50140      6.24%     12.47% |       49634      6.18%     18.65% |       50166      6.24%     24.89% |       49711      6.19%     31.08% |       49606      6.17%     37.25% |       49793      6.20%     43.44% |       50186      6.24%     49.69% |       50182      6.24%     55.93% |       49771      6.19%     62.13% |       51903      6.46%     68.58% |       50946      6.34%     74.92% |       50703      6.31%     81.23% |       50654      6.30%     87.54% |       50546      6.29%     93.83% |       49618      6.17%    100.00%
system.ruby.L2Cache_Controller.MT_MB.Exclusive_Unblock::total       803651                      
system.ruby.L2Cache_Controller.MT_IIB.WB_Data |          70      4.02%      4.02% |          70      4.02%      8.04% |          96      5.51%     13.56% |          98      5.63%     19.18% |          96      5.51%     24.70% |         139      7.98%     32.68% |         139      7.98%     40.67% |         137      7.87%     48.54% |         136      7.81%     56.35% |         136      7.81%     64.16% |         135      7.75%     71.91% |         132      7.58%     79.49% |         108      6.20%     85.70% |         111      6.38%     92.07% |          70      4.02%     96.09% |          68      3.91%    100.00%
system.ruby.L2Cache_Controller.MT_IIB.WB_Data::total         1741                      
system.ruby.L2Cache_Controller.MT_IIB.Unblock |           0      0.00%      0.00% |           0      0.00%      0.00% |           2      8.70%      8.70% |           0      0.00%      8.70% |           2      8.70%     17.39% |           1      4.35%     21.74% |           1      4.35%     26.09% |           3     13.04%     39.13% |           2      8.70%     47.83% |           2      8.70%     56.52% |           1      4.35%     60.87% |           2      8.70%     69.57% |           4     17.39%     86.96% |           1      4.35%     91.30% |           0      0.00%     91.30% |           2      8.70%    100.00%
system.ruby.L2Cache_Controller.MT_IIB.Unblock::total           23                      
system.ruby.L2Cache_Controller.MT_IB.WB_Data |           0      0.00%      0.00% |           0      0.00%      0.00% |           2      8.70%      8.70% |           0      0.00%      8.70% |           2      8.70%     17.39% |           1      4.35%     21.74% |           1      4.35%     26.09% |           3     13.04%     39.13% |           2      8.70%     47.83% |           2      8.70%     56.52% |           1      4.35%     60.87% |           2      8.70%     69.57% |           4     17.39%     86.96% |           1      4.35%     91.30% |           0      0.00%     91.30% |           2      8.70%    100.00%
system.ruby.L2Cache_Controller.MT_IB.WB_Data::total           23                      
system.ruby.L2Cache_Controller.MT_SB.Unblock |          70      4.02%      4.02% |          70      4.02%      8.04% |          96      5.51%     13.56% |          98      5.63%     19.18% |          96      5.51%     24.70% |         139      7.98%     32.68% |         139      7.98%     40.67% |         137      7.87%     48.54% |         136      7.81%     56.35% |         136      7.81%     64.16% |         135      7.75%     71.91% |         132      7.58%     79.49% |         108      6.20%     85.70% |         111      6.38%     92.07% |          70      4.02%     96.09% |          68      3.91%    100.00%
system.ruby.L2Cache_Controller.MT_SB.Unblock::total         1741                      

---------- End Simulation Statistics   ----------
