
---------- Begin Simulation Statistics ----------
sim_seconds                                  0.013373                       # Number of seconds simulated
sim_ticks                                 13373341000                       # Number of ticks simulated
final_tick                                13373341000                       # Number of ticks from beginning of simulation (restored from checkpoints and never reset)
sim_freq                                 1000000000000                       # Frequency of simulated ticks
host_inst_rate                                  35245                       # Simulator instruction rate (inst/s)
host_op_rate                                    61551                       # Simulator op (including micro ops) rate (op/s)
host_tick_rate                               11123548                       # Simulator tick rate (ticks/s)
host_mem_usage                                1757672                       # Number of bytes of host memory used
host_seconds                                  1202.26                       # Real time elapsed on the host
sim_insts                                    42373358                       # Number of instructions simulated
sim_ops                                      74000577                       # Number of ops (including micro ops) simulated
system.voltage_domain.voltage                       1                       # Voltage in Volts
system.clk_domain.clock                          1000                       # Clock period in ticks
system.mem_ctrls0.pwrStateResidencyTicks::UNDEFINED  13373341000                       # Cumulative time (in ticks) in various power states
system.mem_ctrls0.bytes_read::ruby.dir_cntrl0      8621696                       # Number of bytes read from this memory
system.mem_ctrls0.bytes_read::total           8621696                       # Number of bytes read from this memory
system.mem_ctrls0.bytes_written::ruby.dir_cntrl0      1320896                       # Number of bytes written to this memory
system.mem_ctrls0.bytes_written::total        1320896                       # Number of bytes written to this memory
system.mem_ctrls0.num_reads::ruby.dir_cntrl0       134714                       # Number of read requests responded to by this memory
system.mem_ctrls0.num_reads::total             134714                       # Number of read requests responded to by this memory
system.mem_ctrls0.num_writes::ruby.dir_cntrl0        20639                       # Number of write requests responded to by this memory
system.mem_ctrls0.num_writes::total             20639                       # Number of write requests responded to by this memory
system.mem_ctrls0.bw_read::ruby.dir_cntrl0    644692751                       # Total read bandwidth from this memory (bytes/s)
system.mem_ctrls0.bw_read::total            644692751                       # Total read bandwidth from this memory (bytes/s)
system.mem_ctrls0.bw_write::ruby.dir_cntrl0     98770831                       # Write bandwidth from this memory (bytes/s)
system.mem_ctrls0.bw_write::total            98770831                       # Write bandwidth from this memory (bytes/s)
system.mem_ctrls0.bw_total::ruby.dir_cntrl0    743463582                       # Total bandwidth to/from this memory (bytes/s)
system.mem_ctrls0.bw_total::total           743463582                       # Total bandwidth to/from this memory (bytes/s)
system.mem_ctrls0.readReqs                     134714                       # Number of read requests accepted
system.mem_ctrls0.avgNetLat                      0.00                       # Average network latency to DRAM controller
system.mem_ctrls0.writeReqs                     20639                       # Number of write requests accepted
system.mem_ctrls0.readBursts                   134714                       # Number of DRAM read bursts, including those serviced by the write queue
system.mem_ctrls0.writeBursts                   20639                       # Number of DRAM write bursts, including those merged in the write queue
system.mem_ctrls0.bytesReadDRAM               8621248                       # Total number of bytes read from DRAM
system.mem_ctrls0.bytesReadWrQ                    448                       # Total number of bytes read from write queue
system.mem_ctrls0.bytesWritten                1319168                       # Total number of bytes written to DRAM
system.mem_ctrls0.bytesReadSys                8621696                       # Total read bytes from the system interface side
system.mem_ctrls0.bytesWrittenSys             1320896                       # Total written bytes from the system interface side
system.mem_ctrls0.servicedByWrQ                     7                       # Number of DRAM read bursts serviced by the write queue
system.mem_ctrls0.mergedWrBursts                    0                       # Number of DRAM write bursts merged with an existing one
system.mem_ctrls0.neitherReadNorWriteReqs            0                       # Number of requests that are neither read nor write
system.mem_ctrls0.perBankRdBursts::0             8633                       # Per bank write bursts
system.mem_ctrls0.perBankRdBursts::1             8496                       # Per bank write bursts
system.mem_ctrls0.perBankRdBursts::2             8257                       # Per bank write bursts
system.mem_ctrls0.perBankRdBursts::3             8491                       # Per bank write bursts
system.mem_ctrls0.perBankRdBursts::4             8345                       # Per bank write bursts
system.mem_ctrls0.perBankRdBursts::5             8241                       # Per bank write bursts
system.mem_ctrls0.perBankRdBursts::6             8026                       # Per bank write bursts
system.mem_ctrls0.perBankRdBursts::7             8017                       # Per bank write bursts
system.mem_ctrls0.perBankRdBursts::8             8153                       # Per bank write bursts
system.mem_ctrls0.perBankRdBursts::9             8135                       # Per bank write bursts
system.mem_ctrls0.perBankRdBursts::10            8372                       # Per bank write bursts
system.mem_ctrls0.perBankRdBursts::11            8126                       # Per bank write bursts
system.mem_ctrls0.perBankRdBursts::12            8843                       # Per bank write bursts
system.mem_ctrls0.perBankRdBursts::13            8740                       # Per bank write bursts
system.mem_ctrls0.perBankRdBursts::14            8801                       # Per bank write bursts
system.mem_ctrls0.perBankRdBursts::15            9031                       # Per bank write bursts
system.mem_ctrls0.perBankWrBursts::0             1256                       # Per bank write bursts
system.mem_ctrls0.perBankWrBursts::1             1359                       # Per bank write bursts
system.mem_ctrls0.perBankWrBursts::2             1222                       # Per bank write bursts
system.mem_ctrls0.perBankWrBursts::3             1242                       # Per bank write bursts
system.mem_ctrls0.perBankWrBursts::4             1451                       # Per bank write bursts
system.mem_ctrls0.perBankWrBursts::5             1305                       # Per bank write bursts
system.mem_ctrls0.perBankWrBursts::6             1262                       # Per bank write bursts
system.mem_ctrls0.perBankWrBursts::7             1162                       # Per bank write bursts
system.mem_ctrls0.perBankWrBursts::8             1274                       # Per bank write bursts
system.mem_ctrls0.perBankWrBursts::9             1411                       # Per bank write bursts
system.mem_ctrls0.perBankWrBursts::10            1322                       # Per bank write bursts
system.mem_ctrls0.perBankWrBursts::11            1130                       # Per bank write bursts
system.mem_ctrls0.perBankWrBursts::12            1351                       # Per bank write bursts
system.mem_ctrls0.perBankWrBursts::13            1481                       # Per bank write bursts
system.mem_ctrls0.perBankWrBursts::14            1255                       # Per bank write bursts
system.mem_ctrls0.perBankWrBursts::15            1129                       # Per bank write bursts
system.mem_ctrls0.numRdRetry                        0                       # Number of times read queue was full causing retry
system.mem_ctrls0.numWrRetry                        0                       # Number of times write queue was full causing retry
system.mem_ctrls0.totGap                  13372309500                       # Total gap between requests
system.mem_ctrls0.readPktSize::0                    0                       # Read request sizes (log2)
system.mem_ctrls0.readPktSize::1                    0                       # Read request sizes (log2)
system.mem_ctrls0.readPktSize::2                    0                       # Read request sizes (log2)
system.mem_ctrls0.readPktSize::3                    0                       # Read request sizes (log2)
system.mem_ctrls0.readPktSize::4                    0                       # Read request sizes (log2)
system.mem_ctrls0.readPktSize::5                    0                       # Read request sizes (log2)
system.mem_ctrls0.readPktSize::6               134714                       # Read request sizes (log2)
system.mem_ctrls0.writePktSize::0                   0                       # Write request sizes (log2)
system.mem_ctrls0.writePktSize::1                   0                       # Write request sizes (log2)
system.mem_ctrls0.writePktSize::2                   0                       # Write request sizes (log2)
system.mem_ctrls0.writePktSize::3                   0                       # Write request sizes (log2)
system.mem_ctrls0.writePktSize::4                   0                       # Write request sizes (log2)
system.mem_ctrls0.writePktSize::5                   0                       # Write request sizes (log2)
system.mem_ctrls0.writePktSize::6               20639                       # Write request sizes (log2)
system.mem_ctrls0.rdQLenPdf::0                  66305                       # What read queue length does an incoming req see
system.mem_ctrls0.rdQLenPdf::1                  34373                       # What read queue length does an incoming req see
system.mem_ctrls0.rdQLenPdf::2                  17452                       # What read queue length does an incoming req see
system.mem_ctrls0.rdQLenPdf::3                   9035                       # What read queue length does an incoming req see
system.mem_ctrls0.rdQLenPdf::4                   4407                       # What read queue length does an incoming req see
system.mem_ctrls0.rdQLenPdf::5                   2014                       # What read queue length does an incoming req see
system.mem_ctrls0.rdQLenPdf::6                    768                       # What read queue length does an incoming req see
system.mem_ctrls0.rdQLenPdf::7                    262                       # What read queue length does an incoming req see
system.mem_ctrls0.rdQLenPdf::8                     65                       # What read queue length does an incoming req see
system.mem_ctrls0.rdQLenPdf::9                     17                       # What read queue length does an incoming req see
system.mem_ctrls0.rdQLenPdf::10                     6                       # What read queue length does an incoming req see
system.mem_ctrls0.rdQLenPdf::11                     2                       # What read queue length does an incoming req see
system.mem_ctrls0.rdQLenPdf::12                     1                       # What read queue length does an incoming req see
system.mem_ctrls0.rdQLenPdf::13                     0                       # What read queue length does an incoming req see
system.mem_ctrls0.rdQLenPdf::14                     0                       # What read queue length does an incoming req see
system.mem_ctrls0.rdQLenPdf::15                     0                       # What read queue length does an incoming req see
system.mem_ctrls0.rdQLenPdf::16                     0                       # What read queue length does an incoming req see
system.mem_ctrls0.rdQLenPdf::17                     0                       # What read queue length does an incoming req see
system.mem_ctrls0.rdQLenPdf::18                     0                       # What read queue length does an incoming req see
system.mem_ctrls0.rdQLenPdf::19                     0                       # What read queue length does an incoming req see
system.mem_ctrls0.rdQLenPdf::20                     0                       # What read queue length does an incoming req see
system.mem_ctrls0.rdQLenPdf::21                     0                       # What read queue length does an incoming req see
system.mem_ctrls0.rdQLenPdf::22                     0                       # What read queue length does an incoming req see
system.mem_ctrls0.rdQLenPdf::23                     0                       # What read queue length does an incoming req see
system.mem_ctrls0.rdQLenPdf::24                     0                       # What read queue length does an incoming req see
system.mem_ctrls0.rdQLenPdf::25                     0                       # What read queue length does an incoming req see
system.mem_ctrls0.rdQLenPdf::26                     0                       # What read queue length does an incoming req see
system.mem_ctrls0.rdQLenPdf::27                     0                       # What read queue length does an incoming req see
system.mem_ctrls0.rdQLenPdf::28                     0                       # What read queue length does an incoming req see
system.mem_ctrls0.rdQLenPdf::29                     0                       # What read queue length does an incoming req see
system.mem_ctrls0.rdQLenPdf::30                     0                       # What read queue length does an incoming req see
system.mem_ctrls0.rdQLenPdf::31                     0                       # What read queue length does an incoming req see
system.mem_ctrls0.wrQLenPdf::0                      1                       # What write queue length does an incoming req see
system.mem_ctrls0.wrQLenPdf::1                      1                       # What write queue length does an incoming req see
system.mem_ctrls0.wrQLenPdf::2                      1                       # What write queue length does an incoming req see
system.mem_ctrls0.wrQLenPdf::3                      1                       # What write queue length does an incoming req see
system.mem_ctrls0.wrQLenPdf::4                      1                       # What write queue length does an incoming req see
system.mem_ctrls0.wrQLenPdf::5                      1                       # What write queue length does an incoming req see
system.mem_ctrls0.wrQLenPdf::6                      1                       # What write queue length does an incoming req see
system.mem_ctrls0.wrQLenPdf::7                      1                       # What write queue length does an incoming req see
system.mem_ctrls0.wrQLenPdf::8                      1                       # What write queue length does an incoming req see
system.mem_ctrls0.wrQLenPdf::9                      1                       # What write queue length does an incoming req see
system.mem_ctrls0.wrQLenPdf::10                     1                       # What write queue length does an incoming req see
system.mem_ctrls0.wrQLenPdf::11                     1                       # What write queue length does an incoming req see
system.mem_ctrls0.wrQLenPdf::12                     1                       # What write queue length does an incoming req see
system.mem_ctrls0.wrQLenPdf::13                     1                       # What write queue length does an incoming req see
system.mem_ctrls0.wrQLenPdf::14                     1                       # What write queue length does an incoming req see
system.mem_ctrls0.wrQLenPdf::15                   492                       # What write queue length does an incoming req see
system.mem_ctrls0.wrQLenPdf::16                   551                       # What write queue length does an incoming req see
system.mem_ctrls0.wrQLenPdf::17                   901                       # What write queue length does an incoming req see
system.mem_ctrls0.wrQLenPdf::18                  1176                       # What write queue length does an incoming req see
system.mem_ctrls0.wrQLenPdf::19                  1244                       # What write queue length does an incoming req see
system.mem_ctrls0.wrQLenPdf::20                  1257                       # What write queue length does an incoming req see
system.mem_ctrls0.wrQLenPdf::21                  1240                       # What write queue length does an incoming req see
system.mem_ctrls0.wrQLenPdf::22                  1244                       # What write queue length does an incoming req see
system.mem_ctrls0.wrQLenPdf::23                  1246                       # What write queue length does an incoming req see
system.mem_ctrls0.wrQLenPdf::24                  1254                       # What write queue length does an incoming req see
system.mem_ctrls0.wrQLenPdf::25                  1258                       # What write queue length does an incoming req see
system.mem_ctrls0.wrQLenPdf::26                  1257                       # What write queue length does an incoming req see
system.mem_ctrls0.wrQLenPdf::27                  1261                       # What write queue length does an incoming req see
system.mem_ctrls0.wrQLenPdf::28                  1262                       # What write queue length does an incoming req see
system.mem_ctrls0.wrQLenPdf::29                  1261                       # What write queue length does an incoming req see
system.mem_ctrls0.wrQLenPdf::30                  1235                       # What write queue length does an incoming req see
system.mem_ctrls0.wrQLenPdf::31                  1221                       # What write queue length does an incoming req see
system.mem_ctrls0.wrQLenPdf::32                  1218                       # What write queue length does an incoming req see
system.mem_ctrls0.wrQLenPdf::33                    27                       # What write queue length does an incoming req see
system.mem_ctrls0.wrQLenPdf::34                     6                       # What write queue length does an incoming req see
system.mem_ctrls0.wrQLenPdf::35                     4                       # What write queue length does an incoming req see
system.mem_ctrls0.wrQLenPdf::36                     1                       # What write queue length does an incoming req see
system.mem_ctrls0.wrQLenPdf::37                     1                       # What write queue length does an incoming req see
system.mem_ctrls0.wrQLenPdf::38                     1                       # What write queue length does an incoming req see
system.mem_ctrls0.wrQLenPdf::39                     2                       # What write queue length does an incoming req see
system.mem_ctrls0.wrQLenPdf::40                     1                       # What write queue length does an incoming req see
system.mem_ctrls0.wrQLenPdf::41                     1                       # What write queue length does an incoming req see
system.mem_ctrls0.wrQLenPdf::42                     2                       # What write queue length does an incoming req see
system.mem_ctrls0.wrQLenPdf::43                     0                       # What write queue length does an incoming req see
system.mem_ctrls0.wrQLenPdf::44                     0                       # What write queue length does an incoming req see
system.mem_ctrls0.wrQLenPdf::45                     0                       # What write queue length does an incoming req see
system.mem_ctrls0.wrQLenPdf::46                     0                       # What write queue length does an incoming req see
system.mem_ctrls0.wrQLenPdf::47                     0                       # What write queue length does an incoming req see
system.mem_ctrls0.wrQLenPdf::48                     0                       # What write queue length does an incoming req see
system.mem_ctrls0.wrQLenPdf::49                     0                       # What write queue length does an incoming req see
system.mem_ctrls0.wrQLenPdf::50                     0                       # What write queue length does an incoming req see
system.mem_ctrls0.wrQLenPdf::51                     0                       # What write queue length does an incoming req see
system.mem_ctrls0.wrQLenPdf::52                     0                       # What write queue length does an incoming req see
system.mem_ctrls0.wrQLenPdf::53                     0                       # What write queue length does an incoming req see
system.mem_ctrls0.wrQLenPdf::54                     0                       # What write queue length does an incoming req see
system.mem_ctrls0.wrQLenPdf::55                     0                       # What write queue length does an incoming req see
system.mem_ctrls0.wrQLenPdf::56                     0                       # What write queue length does an incoming req see
system.mem_ctrls0.wrQLenPdf::57                     0                       # What write queue length does an incoming req see
system.mem_ctrls0.wrQLenPdf::58                     0                       # What write queue length does an incoming req see
system.mem_ctrls0.wrQLenPdf::59                     0                       # What write queue length does an incoming req see
system.mem_ctrls0.wrQLenPdf::60                     0                       # What write queue length does an incoming req see
system.mem_ctrls0.wrQLenPdf::61                     0                       # What write queue length does an incoming req see
system.mem_ctrls0.wrQLenPdf::62                     0                       # What write queue length does an incoming req see
system.mem_ctrls0.wrQLenPdf::63                     0                       # What write queue length does an incoming req see
system.mem_ctrls0.bytesPerActivate::samples        83679                       # Bytes accessed per row activation
system.mem_ctrls0.bytesPerActivate::mean   118.786123                       # Bytes accessed per row activation
system.mem_ctrls0.bytesPerActivate::gmean    90.138111                       # Bytes accessed per row activation
system.mem_ctrls0.bytesPerActivate::stdev   133.660564                       # Bytes accessed per row activation
system.mem_ctrls0.bytesPerActivate::0-127        58804     70.27%     70.27% # Bytes accessed per row activation
system.mem_ctrls0.bytesPerActivate::128-255        16135     19.28%     89.56% # Bytes accessed per row activation
system.mem_ctrls0.bytesPerActivate::256-383         3530      4.22%     93.77% # Bytes accessed per row activation
system.mem_ctrls0.bytesPerActivate::384-511         2021      2.42%     96.19% # Bytes accessed per row activation
system.mem_ctrls0.bytesPerActivate::512-639         1175      1.40%     97.59% # Bytes accessed per row activation
system.mem_ctrls0.bytesPerActivate::640-767         1385      1.66%     99.25% # Bytes accessed per row activation
system.mem_ctrls0.bytesPerActivate::768-895          142      0.17%     99.42% # Bytes accessed per row activation
system.mem_ctrls0.bytesPerActivate::896-1023           94      0.11%     99.53% # Bytes accessed per row activation
system.mem_ctrls0.bytesPerActivate::1024-1151          393      0.47%    100.00% # Bytes accessed per row activation
system.mem_ctrls0.bytesPerActivate::total        83679                       # Bytes accessed per row activation
system.mem_ctrls0.rdPerTurnAround::samples         1215                       # Reads before turning the bus around for writes
system.mem_ctrls0.rdPerTurnAround::mean    110.858436                       # Reads before turning the bus around for writes
system.mem_ctrls0.rdPerTurnAround::gmean    32.072603                       # Reads before turning the bus around for writes
system.mem_ctrls0.rdPerTurnAround::stdev  1976.226242                       # Reads before turning the bus around for writes
system.mem_ctrls0.rdPerTurnAround::0-4095         1214     99.92%     99.92% # Reads before turning the bus around for writes
system.mem_ctrls0.rdPerTurnAround::65536-69631            1      0.08%    100.00% # Reads before turning the bus around for writes
system.mem_ctrls0.rdPerTurnAround::total         1215                       # Reads before turning the bus around for writes
system.mem_ctrls0.wrPerTurnAround::samples         1215                       # Writes before turning the bus around for reads
system.mem_ctrls0.wrPerTurnAround::mean     16.964609                       # Writes before turning the bus around for reads
system.mem_ctrls0.wrPerTurnAround::gmean    16.929530                       # Writes before turning the bus around for reads
system.mem_ctrls0.wrPerTurnAround::stdev     1.102445                       # Writes before turning the bus around for reads
system.mem_ctrls0.wrPerTurnAround::16             649     53.42%     53.42% # Writes before turning the bus around for reads
system.mem_ctrls0.wrPerTurnAround::17              60      4.94%     58.35% # Writes before turning the bus around for reads
system.mem_ctrls0.wrPerTurnAround::18             417     34.32%     92.67% # Writes before turning the bus around for reads
system.mem_ctrls0.wrPerTurnAround::19              78      6.42%     99.09% # Writes before turning the bus around for reads
system.mem_ctrls0.wrPerTurnAround::20              11      0.91%    100.00% # Writes before turning the bus around for reads
system.mem_ctrls0.wrPerTurnAround::total         1215                       # Writes before turning the bus around for reads
system.mem_ctrls0.totQLat                  3676789750                       # Total ticks spent queuing
system.mem_ctrls0.totMemAccLat             6202546000                       # Total ticks spent from burst creation until serviced by the DRAM
system.mem_ctrls0.totBusLat                 673535000                       # Total ticks spent in databus transfers
system.mem_ctrls0.avgQLat                    27294.72                       # Average queueing delay per DRAM burst
system.mem_ctrls0.avgBusLat                   5000.00                       # Average bus latency per DRAM burst
system.mem_ctrls0.avgMemAccLat               46044.72                       # Average memory access latency per DRAM burst
system.mem_ctrls0.avgRdBW                      644.66                       # Average DRAM read bandwidth in MiByte/s
system.mem_ctrls0.avgWrBW                       98.64                       # Average achieved write bandwidth in MiByte/s
system.mem_ctrls0.avgRdBWSys                   644.69                       # Average system read bandwidth in MiByte/s
system.mem_ctrls0.avgWrBWSys                    98.77                       # Average system write bandwidth in MiByte/s
system.mem_ctrls0.peakBW                     12800.00                       # Theoretical peak bandwidth in MiByte/s
system.mem_ctrls0.busUtil                        5.81                       # Data bus utilization in percentage
system.mem_ctrls0.busUtilRead                    5.04                       # Data bus utilization in percentage for reads
system.mem_ctrls0.busUtilWrite                   0.77                       # Data bus utilization in percentage for writes
system.mem_ctrls0.avgRdQLen                      1.55                       # Average read queue length when enqueuing
system.mem_ctrls0.avgWrQLen                     10.51                       # Average write queue length when enqueuing
system.mem_ctrls0.readRowHits                   65347                       # Number of row buffer hits during reads
system.mem_ctrls0.writeRowHits                   6291                       # Number of row buffer hits during writes
system.mem_ctrls0.readRowHitRate                48.51                       # Row buffer hit rate for reads
system.mem_ctrls0.writeRowHitRate               30.48                       # Row buffer hit rate for writes
system.mem_ctrls0.avgGap                     86076.93                       # Average gap between requests
system.mem_ctrls0.pageHitRate                   46.12                       # Row buffer hit rate, read and write combined
system.mem_ctrls0_0.actEnergy               290012520                       # Energy for activate commands per rank (pJ)
system.mem_ctrls0_0.preEnergy               154141515                       # Energy for precharge commands per rank (pJ)
system.mem_ctrls0_0.readEnergy              474852840                       # Energy for read commands per rank (pJ)
system.mem_ctrls0_0.writeEnergy              53551980                       # Energy for write commands per rank (pJ)
system.mem_ctrls0_0.refreshEnergy        1062712560.000000                       # Energy for refresh commands per rank (pJ)
system.mem_ctrls0_0.actBackEnergy          1324958160                       # Energy for active background per rank (pJ)
system.mem_ctrls0_0.preBackEnergy            25929600                       # Energy for precharge background per rank (pJ)
system.mem_ctrls0_0.actPowerDownEnergy     4424304660                       # Energy for active power-down per rank (pJ)
system.mem_ctrls0_0.prePowerDownEnergy      242079840                       # Energy for precharge power-down per rank (pJ)
system.mem_ctrls0_0.selfRefreshEnergy        28317480                       # Energy for self refresh per rank (pJ)
system.mem_ctrls0_0.totalEnergy            8080861155                       # Total energy per rank (pJ)
system.mem_ctrls0_0.averagePower           604.251473                       # Core power per rank (mW)
system.mem_ctrls0_0.totalIdleTime         10399627250                       # Total Idle time Per DRAM Rank
system.mem_ctrls0_0.memoryStateTime::IDLE     14874750                       # Time in different power states
system.mem_ctrls0_0.memoryStateTime::REF    449672000                       # Time in different power states
system.mem_ctrls0_0.memoryStateTime::SREF     67365000                       # Time in different power states
system.mem_ctrls0_0.memoryStateTime::PRE_PDN    630374250                       # Time in different power states
system.mem_ctrls0_0.memoryStateTime::ACT   2508252750                       # Time in different power states
system.mem_ctrls0_0.memoryStateTime::ACT_PDN   9702802250                       # Time in different power states
system.mem_ctrls0_1.actEnergy               307469820                       # Energy for activate commands per rank (pJ)
system.mem_ctrls0_1.preEnergy               163420290                       # Energy for precharge commands per rank (pJ)
system.mem_ctrls0_1.readEnergy              486955140                       # Energy for read commands per rank (pJ)
system.mem_ctrls0_1.writeEnergy              54042660                       # Energy for write commands per rank (pJ)
system.mem_ctrls0_1.refreshEnergy        1060868640.000000                       # Energy for refresh commands per rank (pJ)
system.mem_ctrls0_1.actBackEnergy          1425388740                       # Energy for active background per rank (pJ)
system.mem_ctrls0_1.preBackEnergy            25885440                       # Energy for precharge background per rank (pJ)
system.mem_ctrls0_1.actPowerDownEnergy     4260235860                       # Energy for active power-down per rank (pJ)
system.mem_ctrls0_1.prePowerDownEnergy      278704320                       # Energy for precharge power-down per rank (pJ)
system.mem_ctrls0_1.selfRefreshEnergy        40722120                       # Energy for self refresh per rank (pJ)
system.mem_ctrls0_1.totalEnergy            8103895410                       # Total energy per rank (pJ)
system.mem_ctrls0_1.averagePower           605.973874                       # Core power per rank (mW)
system.mem_ctrls0_1.totalIdleTime         10178423500                       # Total Idle time Per DRAM Rank
system.mem_ctrls0_1.memoryStateTime::IDLE     15879000                       # Time in different power states
system.mem_ctrls0_1.memoryStateTime::REF    448928000                       # Time in different power states
system.mem_ctrls0_1.memoryStateTime::SREF    111207750                       # Time in different power states
system.mem_ctrls0_1.memoryStateTime::PRE_PDN    725587750                       # Time in different power states
system.mem_ctrls0_1.memoryStateTime::ACT   2728576250                       # Time in different power states
system.mem_ctrls0_1.memoryStateTime::ACT_PDN   9343162250                       # Time in different power states
system.mem_ctrls1.pwrStateResidencyTicks::UNDEFINED  13373341000                       # Cumulative time (in ticks) in various power states
system.mem_ctrls1.bytes_read::ruby.dir_cntrl1      8696832                       # Number of bytes read from this memory
system.mem_ctrls1.bytes_read::total           8696832                       # Number of bytes read from this memory
system.mem_ctrls1.bytes_written::ruby.dir_cntrl1      1342016                       # Number of bytes written to this memory
system.mem_ctrls1.bytes_written::total        1342016                       # Number of bytes written to this memory
system.mem_ctrls1.num_reads::ruby.dir_cntrl1       135888                       # Number of read requests responded to by this memory
system.mem_ctrls1.num_reads::total             135888                       # Number of read requests responded to by this memory
system.mem_ctrls1.num_writes::ruby.dir_cntrl1        20969                       # Number of write requests responded to by this memory
system.mem_ctrls1.num_writes::total             20969                       # Number of write requests responded to by this memory
system.mem_ctrls1.bw_read::ruby.dir_cntrl1    650311093                       # Total read bandwidth from this memory (bytes/s)
system.mem_ctrls1.bw_read::total            650311093                       # Total read bandwidth from this memory (bytes/s)
system.mem_ctrls1.bw_write::ruby.dir_cntrl1    100350092                       # Write bandwidth from this memory (bytes/s)
system.mem_ctrls1.bw_write::total           100350092                       # Write bandwidth from this memory (bytes/s)
system.mem_ctrls1.bw_total::ruby.dir_cntrl1    750661185                       # Total bandwidth to/from this memory (bytes/s)
system.mem_ctrls1.bw_total::total           750661185                       # Total bandwidth to/from this memory (bytes/s)
system.mem_ctrls1.readReqs                     135888                       # Number of read requests accepted
system.mem_ctrls1.avgNetLat                      0.00                       # Average network latency to DRAM controller
system.mem_ctrls1.writeReqs                     20969                       # Number of write requests accepted
system.mem_ctrls1.readBursts                   135888                       # Number of DRAM read bursts, including those serviced by the write queue
system.mem_ctrls1.writeBursts                   20969                       # Number of DRAM write bursts, including those merged in the write queue
system.mem_ctrls1.bytesReadDRAM               8695744                       # Total number of bytes read from DRAM
system.mem_ctrls1.bytesReadWrQ                   1088                       # Total number of bytes read from write queue
system.mem_ctrls1.bytesWritten                1340992                       # Total number of bytes written to DRAM
system.mem_ctrls1.bytesReadSys                8696832                       # Total read bytes from the system interface side
system.mem_ctrls1.bytesWrittenSys             1342016                       # Total written bytes from the system interface side
system.mem_ctrls1.servicedByWrQ                    17                       # Number of DRAM read bursts serviced by the write queue
system.mem_ctrls1.mergedWrBursts                    0                       # Number of DRAM write bursts merged with an existing one
system.mem_ctrls1.neitherReadNorWriteReqs            0                       # Number of requests that are neither read nor write
system.mem_ctrls1.perBankRdBursts::0             8695                       # Per bank write bursts
system.mem_ctrls1.perBankRdBursts::1             8590                       # Per bank write bursts
system.mem_ctrls1.perBankRdBursts::2             8290                       # Per bank write bursts
system.mem_ctrls1.perBankRdBursts::3             8468                       # Per bank write bursts
system.mem_ctrls1.perBankRdBursts::4             8441                       # Per bank write bursts
system.mem_ctrls1.perBankRdBursts::5             8345                       # Per bank write bursts
system.mem_ctrls1.perBankRdBursts::6             8135                       # Per bank write bursts
system.mem_ctrls1.perBankRdBursts::7             8081                       # Per bank write bursts
system.mem_ctrls1.perBankRdBursts::8             8224                       # Per bank write bursts
system.mem_ctrls1.perBankRdBursts::9             8236                       # Per bank write bursts
system.mem_ctrls1.perBankRdBursts::10            8441                       # Per bank write bursts
system.mem_ctrls1.perBankRdBursts::11            8199                       # Per bank write bursts
system.mem_ctrls1.perBankRdBursts::12            8910                       # Per bank write bursts
system.mem_ctrls1.perBankRdBursts::13            8869                       # Per bank write bursts
system.mem_ctrls1.perBankRdBursts::14            8868                       # Per bank write bursts
system.mem_ctrls1.perBankRdBursts::15            9079                       # Per bank write bursts
system.mem_ctrls1.perBankWrBursts::0             1268                       # Per bank write bursts
system.mem_ctrls1.perBankWrBursts::1             1410                       # Per bank write bursts
system.mem_ctrls1.perBankWrBursts::2             1258                       # Per bank write bursts
system.mem_ctrls1.perBankWrBursts::3             1251                       # Per bank write bursts
system.mem_ctrls1.perBankWrBursts::4             1455                       # Per bank write bursts
system.mem_ctrls1.perBankWrBursts::5             1345                       # Per bank write bursts
system.mem_ctrls1.perBankWrBursts::6             1285                       # Per bank write bursts
system.mem_ctrls1.perBankWrBursts::7             1186                       # Per bank write bursts
system.mem_ctrls1.perBankWrBursts::8             1291                       # Per bank write bursts
system.mem_ctrls1.perBankWrBursts::9             1447                       # Per bank write bursts
system.mem_ctrls1.perBankWrBursts::10            1318                       # Per bank write bursts
system.mem_ctrls1.perBankWrBursts::11            1149                       # Per bank write bursts
system.mem_ctrls1.perBankWrBursts::12            1378                       # Per bank write bursts
system.mem_ctrls1.perBankWrBursts::13            1502                       # Per bank write bursts
system.mem_ctrls1.perBankWrBursts::14            1271                       # Per bank write bursts
system.mem_ctrls1.perBankWrBursts::15            1139                       # Per bank write bursts
system.mem_ctrls1.numRdRetry                        0                       # Number of times read queue was full causing retry
system.mem_ctrls1.numWrRetry                        0                       # Number of times write queue was full causing retry
system.mem_ctrls1.totGap                  13372834000                       # Total gap between requests
system.mem_ctrls1.readPktSize::0                    0                       # Read request sizes (log2)
system.mem_ctrls1.readPktSize::1                    0                       # Read request sizes (log2)
system.mem_ctrls1.readPktSize::2                    0                       # Read request sizes (log2)
system.mem_ctrls1.readPktSize::3                    0                       # Read request sizes (log2)
system.mem_ctrls1.readPktSize::4                    0                       # Read request sizes (log2)
system.mem_ctrls1.readPktSize::5                    0                       # Read request sizes (log2)
system.mem_ctrls1.readPktSize::6               135888                       # Read request sizes (log2)
system.mem_ctrls1.writePktSize::0                   0                       # Write request sizes (log2)
system.mem_ctrls1.writePktSize::1                   0                       # Write request sizes (log2)
system.mem_ctrls1.writePktSize::2                   0                       # Write request sizes (log2)
system.mem_ctrls1.writePktSize::3                   0                       # Write request sizes (log2)
system.mem_ctrls1.writePktSize::4                   0                       # Write request sizes (log2)
system.mem_ctrls1.writePktSize::5                   0                       # Write request sizes (log2)
system.mem_ctrls1.writePktSize::6               20969                       # Write request sizes (log2)
system.mem_ctrls1.rdQLenPdf::0                  66927                       # What read queue length does an incoming req see
system.mem_ctrls1.rdQLenPdf::1                  35021                       # What read queue length does an incoming req see
system.mem_ctrls1.rdQLenPdf::2                  17634                       # What read queue length does an incoming req see
system.mem_ctrls1.rdQLenPdf::3                   8911                       # What read queue length does an incoming req see
system.mem_ctrls1.rdQLenPdf::4                   4249                       # What read queue length does an incoming req see
system.mem_ctrls1.rdQLenPdf::5                   1967                       # What read queue length does an incoming req see
system.mem_ctrls1.rdQLenPdf::6                    791                       # What read queue length does an incoming req see
system.mem_ctrls1.rdQLenPdf::7                    275                       # What read queue length does an incoming req see
system.mem_ctrls1.rdQLenPdf::8                     74                       # What read queue length does an incoming req see
system.mem_ctrls1.rdQLenPdf::9                     19                       # What read queue length does an incoming req see
system.mem_ctrls1.rdQLenPdf::10                     3                       # What read queue length does an incoming req see
system.mem_ctrls1.rdQLenPdf::11                     0                       # What read queue length does an incoming req see
system.mem_ctrls1.rdQLenPdf::12                     0                       # What read queue length does an incoming req see
system.mem_ctrls1.rdQLenPdf::13                     0                       # What read queue length does an incoming req see
system.mem_ctrls1.rdQLenPdf::14                     0                       # What read queue length does an incoming req see
system.mem_ctrls1.rdQLenPdf::15                     0                       # What read queue length does an incoming req see
system.mem_ctrls1.rdQLenPdf::16                     0                       # What read queue length does an incoming req see
system.mem_ctrls1.rdQLenPdf::17                     0                       # What read queue length does an incoming req see
system.mem_ctrls1.rdQLenPdf::18                     0                       # What read queue length does an incoming req see
system.mem_ctrls1.rdQLenPdf::19                     0                       # What read queue length does an incoming req see
system.mem_ctrls1.rdQLenPdf::20                     0                       # What read queue length does an incoming req see
system.mem_ctrls1.rdQLenPdf::21                     0                       # What read queue length does an incoming req see
system.mem_ctrls1.rdQLenPdf::22                     0                       # What read queue length does an incoming req see
system.mem_ctrls1.rdQLenPdf::23                     0                       # What read queue length does an incoming req see
system.mem_ctrls1.rdQLenPdf::24                     0                       # What read queue length does an incoming req see
system.mem_ctrls1.rdQLenPdf::25                     0                       # What read queue length does an incoming req see
system.mem_ctrls1.rdQLenPdf::26                     0                       # What read queue length does an incoming req see
system.mem_ctrls1.rdQLenPdf::27                     0                       # What read queue length does an incoming req see
system.mem_ctrls1.rdQLenPdf::28                     0                       # What read queue length does an incoming req see
system.mem_ctrls1.rdQLenPdf::29                     0                       # What read queue length does an incoming req see
system.mem_ctrls1.rdQLenPdf::30                     0                       # What read queue length does an incoming req see
system.mem_ctrls1.rdQLenPdf::31                     0                       # What read queue length does an incoming req see
system.mem_ctrls1.wrQLenPdf::0                      1                       # What write queue length does an incoming req see
system.mem_ctrls1.wrQLenPdf::1                      1                       # What write queue length does an incoming req see
system.mem_ctrls1.wrQLenPdf::2                      1                       # What write queue length does an incoming req see
system.mem_ctrls1.wrQLenPdf::3                      1                       # What write queue length does an incoming req see
system.mem_ctrls1.wrQLenPdf::4                      1                       # What write queue length does an incoming req see
system.mem_ctrls1.wrQLenPdf::5                      1                       # What write queue length does an incoming req see
system.mem_ctrls1.wrQLenPdf::6                      1                       # What write queue length does an incoming req see
system.mem_ctrls1.wrQLenPdf::7                      1                       # What write queue length does an incoming req see
system.mem_ctrls1.wrQLenPdf::8                      1                       # What write queue length does an incoming req see
system.mem_ctrls1.wrQLenPdf::9                      1                       # What write queue length does an incoming req see
system.mem_ctrls1.wrQLenPdf::10                     1                       # What write queue length does an incoming req see
system.mem_ctrls1.wrQLenPdf::11                     1                       # What write queue length does an incoming req see
system.mem_ctrls1.wrQLenPdf::12                     1                       # What write queue length does an incoming req see
system.mem_ctrls1.wrQLenPdf::13                     1                       # What write queue length does an incoming req see
system.mem_ctrls1.wrQLenPdf::14                     1                       # What write queue length does an incoming req see
system.mem_ctrls1.wrQLenPdf::15                   507                       # What write queue length does an incoming req see
system.mem_ctrls1.wrQLenPdf::16                   553                       # What write queue length does an incoming req see
system.mem_ctrls1.wrQLenPdf::17                   924                       # What write queue length does an incoming req see
system.mem_ctrls1.wrQLenPdf::18                  1175                       # What write queue length does an incoming req see
system.mem_ctrls1.wrQLenPdf::19                  1265                       # What write queue length does an incoming req see
system.mem_ctrls1.wrQLenPdf::20                  1265                       # What write queue length does an incoming req see
system.mem_ctrls1.wrQLenPdf::21                  1276                       # What write queue length does an incoming req see
system.mem_ctrls1.wrQLenPdf::22                  1271                       # What write queue length does an incoming req see
system.mem_ctrls1.wrQLenPdf::23                  1272                       # What write queue length does an incoming req see
system.mem_ctrls1.wrQLenPdf::24                  1275                       # What write queue length does an incoming req see
system.mem_ctrls1.wrQLenPdf::25                  1279                       # What write queue length does an incoming req see
system.mem_ctrls1.wrQLenPdf::26                  1285                       # What write queue length does an incoming req see
system.mem_ctrls1.wrQLenPdf::27                  1284                       # What write queue length does an incoming req see
system.mem_ctrls1.wrQLenPdf::28                  1284                       # What write queue length does an incoming req see
system.mem_ctrls1.wrQLenPdf::29                  1271                       # What write queue length does an incoming req see
system.mem_ctrls1.wrQLenPdf::30                  1265                       # What write queue length does an incoming req see
system.mem_ctrls1.wrQLenPdf::31                  1244                       # What write queue length does an incoming req see
system.mem_ctrls1.wrQLenPdf::32                  1240                       # What write queue length does an incoming req see
system.mem_ctrls1.wrQLenPdf::33                    17                       # What write queue length does an incoming req see
system.mem_ctrls1.wrQLenPdf::34                     2                       # What write queue length does an incoming req see
system.mem_ctrls1.wrQLenPdf::35                     0                       # What write queue length does an incoming req see
system.mem_ctrls1.wrQLenPdf::36                     0                       # What write queue length does an incoming req see
system.mem_ctrls1.wrQLenPdf::37                     0                       # What write queue length does an incoming req see
system.mem_ctrls1.wrQLenPdf::38                     0                       # What write queue length does an incoming req see
system.mem_ctrls1.wrQLenPdf::39                     0                       # What write queue length does an incoming req see
system.mem_ctrls1.wrQLenPdf::40                     0                       # What write queue length does an incoming req see
system.mem_ctrls1.wrQLenPdf::41                     0                       # What write queue length does an incoming req see
system.mem_ctrls1.wrQLenPdf::42                     0                       # What write queue length does an incoming req see
system.mem_ctrls1.wrQLenPdf::43                     0                       # What write queue length does an incoming req see
system.mem_ctrls1.wrQLenPdf::44                     0                       # What write queue length does an incoming req see
system.mem_ctrls1.wrQLenPdf::45                     0                       # What write queue length does an incoming req see
system.mem_ctrls1.wrQLenPdf::46                     0                       # What write queue length does an incoming req see
system.mem_ctrls1.wrQLenPdf::47                     0                       # What write queue length does an incoming req see
system.mem_ctrls1.wrQLenPdf::48                     0                       # What write queue length does an incoming req see
system.mem_ctrls1.wrQLenPdf::49                     0                       # What write queue length does an incoming req see
system.mem_ctrls1.wrQLenPdf::50                     0                       # What write queue length does an incoming req see
system.mem_ctrls1.wrQLenPdf::51                     0                       # What write queue length does an incoming req see
system.mem_ctrls1.wrQLenPdf::52                     0                       # What write queue length does an incoming req see
system.mem_ctrls1.wrQLenPdf::53                     0                       # What write queue length does an incoming req see
system.mem_ctrls1.wrQLenPdf::54                     0                       # What write queue length does an incoming req see
system.mem_ctrls1.wrQLenPdf::55                     0                       # What write queue length does an incoming req see
system.mem_ctrls1.wrQLenPdf::56                     0                       # What write queue length does an incoming req see
system.mem_ctrls1.wrQLenPdf::57                     0                       # What write queue length does an incoming req see
system.mem_ctrls1.wrQLenPdf::58                     0                       # What write queue length does an incoming req see
system.mem_ctrls1.wrQLenPdf::59                     0                       # What write queue length does an incoming req see
system.mem_ctrls1.wrQLenPdf::60                     0                       # What write queue length does an incoming req see
system.mem_ctrls1.wrQLenPdf::61                     0                       # What write queue length does an incoming req see
system.mem_ctrls1.wrQLenPdf::62                     0                       # What write queue length does an incoming req see
system.mem_ctrls1.wrQLenPdf::63                     0                       # What write queue length does an incoming req see
system.mem_ctrls1.bytesPerActivate::samples        85795                       # Bytes accessed per row activation
system.mem_ctrls1.bytesPerActivate::mean   116.975395                       # Bytes accessed per row activation
system.mem_ctrls1.bytesPerActivate::gmean    89.341767                       # Bytes accessed per row activation
system.mem_ctrls1.bytesPerActivate::stdev   130.777553                       # Bytes accessed per row activation
system.mem_ctrls1.bytesPerActivate::0-127        60783     70.85%     70.85% # Bytes accessed per row activation
system.mem_ctrls1.bytesPerActivate::128-255        16298     19.00%     89.84% # Bytes accessed per row activation
system.mem_ctrls1.bytesPerActivate::256-383         3617      4.22%     94.06% # Bytes accessed per row activation
system.mem_ctrls1.bytesPerActivate::384-511         1943      2.26%     96.32% # Bytes accessed per row activation
system.mem_ctrls1.bytesPerActivate::512-639         1238      1.44%     97.77% # Bytes accessed per row activation
system.mem_ctrls1.bytesPerActivate::640-767         1318      1.54%     99.30% # Bytes accessed per row activation
system.mem_ctrls1.bytesPerActivate::768-895          134      0.16%     99.46% # Bytes accessed per row activation
system.mem_ctrls1.bytesPerActivate::896-1023           76      0.09%     99.55% # Bytes accessed per row activation
system.mem_ctrls1.bytesPerActivate::1024-1151          388      0.45%    100.00% # Bytes accessed per row activation
system.mem_ctrls1.bytesPerActivate::total        85795                       # Bytes accessed per row activation
system.mem_ctrls1.rdPerTurnAround::samples         1234                       # Reads before turning the bus around for writes
system.mem_ctrls1.rdPerTurnAround::mean    110.105348                       # Reads before turning the bus around for writes
system.mem_ctrls1.rdPerTurnAround::gmean    31.699739                       # Reads before turning the bus around for writes
system.mem_ctrls1.rdPerTurnAround::stdev  1945.786950                       # Reads before turning the bus around for writes
system.mem_ctrls1.rdPerTurnAround::0-4095         1233     99.92%     99.92% # Reads before turning the bus around for writes
system.mem_ctrls1.rdPerTurnAround::65536-69631            1      0.08%    100.00% # Reads before turning the bus around for writes
system.mem_ctrls1.rdPerTurnAround::total         1234                       # Reads before turning the bus around for writes
system.mem_ctrls1.wrPerTurnAround::samples         1234                       # Writes before turning the bus around for reads
system.mem_ctrls1.wrPerTurnAround::mean     16.979741                       # Writes before turning the bus around for reads
system.mem_ctrls1.wrPerTurnAround::gmean    16.942001                       # Writes before turning the bus around for reads
system.mem_ctrls1.wrPerTurnAround::stdev     1.147123                       # Writes before turning the bus around for reads
system.mem_ctrls1.wrPerTurnAround::16             671     54.38%     54.38% # Writes before turning the bus around for reads
system.mem_ctrls1.wrPerTurnAround::17              42      3.40%     57.78% # Writes before turning the bus around for reads
system.mem_ctrls1.wrPerTurnAround::18             418     33.87%     91.65% # Writes before turning the bus around for reads
system.mem_ctrls1.wrPerTurnAround::19              87      7.05%     98.70% # Writes before turning the bus around for reads
system.mem_ctrls1.wrPerTurnAround::20              10      0.81%     99.51% # Writes before turning the bus around for reads
system.mem_ctrls1.wrPerTurnAround::21               6      0.49%    100.00% # Writes before turning the bus around for reads
system.mem_ctrls1.wrPerTurnAround::total         1234                       # Writes before turning the bus around for reads
system.mem_ctrls1.totQLat                  3751454500                       # Total ticks spent queuing
system.mem_ctrls1.totMemAccLat             6299035750                       # Total ticks spent from burst creation until serviced by the DRAM
system.mem_ctrls1.totBusLat                 679355000                       # Total ticks spent in databus transfers
system.mem_ctrls1.avgQLat                    27610.41                       # Average queueing delay per DRAM burst
system.mem_ctrls1.avgBusLat                   5000.00                       # Average bus latency per DRAM burst
system.mem_ctrls1.avgMemAccLat               46360.41                       # Average memory access latency per DRAM burst
system.mem_ctrls1.avgRdBW                      650.23                       # Average DRAM read bandwidth in MiByte/s
system.mem_ctrls1.avgWrBW                      100.27                       # Average achieved write bandwidth in MiByte/s
system.mem_ctrls1.avgRdBWSys                   650.31                       # Average system read bandwidth in MiByte/s
system.mem_ctrls1.avgWrBWSys                   100.35                       # Average system write bandwidth in MiByte/s
system.mem_ctrls1.peakBW                     12800.00                       # Theoretical peak bandwidth in MiByte/s
system.mem_ctrls1.busUtil                        5.86                       # Data bus utilization in percentage
system.mem_ctrls1.busUtilRead                    5.08                       # Data bus utilization in percentage for reads
system.mem_ctrls1.busUtilWrite                   0.78                       # Data bus utilization in percentage for writes
system.mem_ctrls1.avgRdQLen                      1.55                       # Average read queue length when enqueuing
system.mem_ctrls1.avgWrQLen                     10.88                       # Average write queue length when enqueuing
system.mem_ctrls1.readRowHits                   64749                       # Number of row buffer hits during reads
system.mem_ctrls1.writeRowHits                   6272                       # Number of row buffer hits during writes
system.mem_ctrls1.readRowHitRate                47.65                       # Row buffer hit rate for reads
system.mem_ctrls1.writeRowHitRate               29.91                       # Row buffer hit rate for writes
system.mem_ctrls1.avgGap                     85254.94                       # Average gap between requests
system.mem_ctrls1.pageHitRate                   45.28                       # Row buffer hit rate, read and write combined
system.mem_ctrls1_0.actEnergy               297202500                       # Energy for activate commands per rank (pJ)
system.mem_ctrls1_0.preEnergy               157951695                       # Energy for precharge commands per rank (pJ)
system.mem_ctrls1_0.readEnergy              478701300                       # Energy for read commands per rank (pJ)
system.mem_ctrls1_0.writeEnergy              54590760                       # Energy for write commands per rank (pJ)
system.mem_ctrls1_0.refreshEnergy        1059024720.000000                       # Energy for refresh commands per rank (pJ)
system.mem_ctrls1_0.actBackEnergy          1342015410                       # Energy for active background per rank (pJ)
system.mem_ctrls1_0.preBackEnergy            25097280                       # Energy for precharge background per rank (pJ)
system.mem_ctrls1_0.actPowerDownEnergy     4390081290                       # Energy for active power-down per rank (pJ)
system.mem_ctrls1_0.prePowerDownEnergy      259216320                       # Energy for precharge power-down per rank (pJ)
system.mem_ctrls1_0.selfRefreshEnergy        23325705                       # Energy for self refresh per rank (pJ)
system.mem_ctrls1_0.totalEnergy            8087240190                       # Total energy per rank (pJ)
system.mem_ctrls1_0.averagePower           604.728470                       # Core power per rank (mW)
system.mem_ctrls1_0.totalIdleTime         10365327250                       # Total Idle time Per DRAM Rank
system.mem_ctrls1_0.memoryStateTime::IDLE     13841000                       # Time in different power states
system.mem_ctrls1_0.memoryStateTime::REF    448088000                       # Time in different power states
system.mem_ctrls1_0.memoryStateTime::SREF     62479750                       # Time in different power states
system.mem_ctrls1_0.memoryStateTime::PRE_PDN    674827250                       # Time in different power states
system.mem_ctrls1_0.memoryStateTime::ACT   2546084750                       # Time in different power states
system.mem_ctrls1_0.memoryStateTime::ACT_PDN   9628020250                       # Time in different power states
system.mem_ctrls1_1.actEnergy               315430920                       # Energy for activate commands per rank (pJ)
system.mem_ctrls1_1.preEnergy               167640330                       # Energy for precharge commands per rank (pJ)
system.mem_ctrls1_1.readEnergy              491417640                       # Energy for read commands per rank (pJ)
system.mem_ctrls1_1.writeEnergy              54783900                       # Energy for write commands per rank (pJ)
system.mem_ctrls1_1.refreshEnergy        1059024720.000000                       # Energy for refresh commands per rank (pJ)
system.mem_ctrls1_1.actBackEnergy          1438283280                       # Energy for active background per rank (pJ)
system.mem_ctrls1_1.preBackEnergy            25718880                       # Energy for precharge background per rank (pJ)
system.mem_ctrls1_1.actPowerDownEnergy     4256561070                       # Energy for active power-down per rank (pJ)
system.mem_ctrls1_1.prePowerDownEnergy      274706880                       # Energy for precharge power-down per rank (pJ)
system.mem_ctrls1_1.selfRefreshEnergy        35623305                       # Energy for self refresh per rank (pJ)
system.mem_ctrls1_1.totalEnergy            8119300515                       # Total energy per rank (pJ)
system.mem_ctrls1_1.averagePower           607.125801                       # Core power per rank (mW)
system.mem_ctrls1_1.totalIdleTime         10152255750                       # Total Idle time Per DRAM Rank
system.mem_ctrls1_1.memoryStateTime::IDLE     15086500                       # Time in different power states
system.mem_ctrls1_1.memoryStateTime::REF    448112000                       # Time in different power states
system.mem_ctrls1_1.memoryStateTime::SREF    102043500                       # Time in different power states
system.mem_ctrls1_1.memoryStateTime::PRE_PDN    715164750                       # Time in different power states
system.mem_ctrls1_1.memoryStateTime::ACT   2757774250                       # Time in different power states
system.mem_ctrls1_1.memoryStateTime::ACT_PDN   9335160000                       # Time in different power states
system.mem_ctrls2.pwrStateResidencyTicks::UNDEFINED  13373341000                       # Cumulative time (in ticks) in various power states
system.mem_ctrls2.bytes_read::ruby.dir_cntrl2      8613440                       # Number of bytes read from this memory
system.mem_ctrls2.bytes_read::total           8613440                       # Number of bytes read from this memory
system.mem_ctrls2.bytes_written::ruby.dir_cntrl2      1318336                       # Number of bytes written to this memory
system.mem_ctrls2.bytes_written::total        1318336                       # Number of bytes written to this memory
system.mem_ctrls2.num_reads::ruby.dir_cntrl2       134585                       # Number of read requests responded to by this memory
system.mem_ctrls2.num_reads::total             134585                       # Number of read requests responded to by this memory
system.mem_ctrls2.num_writes::ruby.dir_cntrl2        20599                       # Number of write requests responded to by this memory
system.mem_ctrls2.num_writes::total             20599                       # Number of write requests responded to by this memory
system.mem_ctrls2.bw_read::ruby.dir_cntrl2    644075403                       # Total read bandwidth from this memory (bytes/s)
system.mem_ctrls2.bw_read::total            644075403                       # Total read bandwidth from this memory (bytes/s)
system.mem_ctrls2.bw_write::ruby.dir_cntrl2     98579405                       # Write bandwidth from this memory (bytes/s)
system.mem_ctrls2.bw_write::total            98579405                       # Write bandwidth from this memory (bytes/s)
system.mem_ctrls2.bw_total::ruby.dir_cntrl2    742654809                       # Total bandwidth to/from this memory (bytes/s)
system.mem_ctrls2.bw_total::total           742654809                       # Total bandwidth to/from this memory (bytes/s)
system.mem_ctrls2.readReqs                     134585                       # Number of read requests accepted
system.mem_ctrls2.avgNetLat                      0.00                       # Average network latency to DRAM controller
system.mem_ctrls2.writeReqs                     20599                       # Number of write requests accepted
system.mem_ctrls2.readBursts                   134585                       # Number of DRAM read bursts, including those serviced by the write queue
system.mem_ctrls2.writeBursts                   20599                       # Number of DRAM write bursts, including those merged in the write queue
system.mem_ctrls2.bytesReadDRAM               8612928                       # Total number of bytes read from DRAM
system.mem_ctrls2.bytesReadWrQ                    512                       # Total number of bytes read from write queue
system.mem_ctrls2.bytesWritten                1316608                       # Total number of bytes written to DRAM
system.mem_ctrls2.bytesReadSys                8613440                       # Total read bytes from the system interface side
system.mem_ctrls2.bytesWrittenSys             1318336                       # Total written bytes from the system interface side
system.mem_ctrls2.servicedByWrQ                     8                       # Number of DRAM read bursts serviced by the write queue
system.mem_ctrls2.mergedWrBursts                    0                       # Number of DRAM write bursts merged with an existing one
system.mem_ctrls2.neitherReadNorWriteReqs            0                       # Number of requests that are neither read nor write
system.mem_ctrls2.perBankRdBursts::0             8636                       # Per bank write bursts
system.mem_ctrls2.perBankRdBursts::1             8497                       # Per bank write bursts
system.mem_ctrls2.perBankRdBursts::2             8216                       # Per bank write bursts
system.mem_ctrls2.perBankRdBursts::3             8345                       # Per bank write bursts
system.mem_ctrls2.perBankRdBursts::4             8350                       # Per bank write bursts
system.mem_ctrls2.perBankRdBursts::5             8228                       # Per bank write bursts
system.mem_ctrls2.perBankRdBursts::6             8047                       # Per bank write bursts
system.mem_ctrls2.perBankRdBursts::7             8003                       # Per bank write bursts
system.mem_ctrls2.perBankRdBursts::8             8076                       # Per bank write bursts
system.mem_ctrls2.perBankRdBursts::9             8142                       # Per bank write bursts
system.mem_ctrls2.perBankRdBursts::10            8390                       # Per bank write bursts
system.mem_ctrls2.perBankRdBursts::11            8105                       # Per bank write bursts
system.mem_ctrls2.perBankRdBursts::12            8847                       # Per bank write bursts
system.mem_ctrls2.perBankRdBursts::13            8790                       # Per bank write bursts
system.mem_ctrls2.perBankRdBursts::14            8840                       # Per bank write bursts
system.mem_ctrls2.perBankRdBursts::15            9065                       # Per bank write bursts
system.mem_ctrls2.perBankWrBursts::0             1232                       # Per bank write bursts
system.mem_ctrls2.perBankWrBursts::1             1365                       # Per bank write bursts
system.mem_ctrls2.perBankWrBursts::2             1224                       # Per bank write bursts
system.mem_ctrls2.perBankWrBursts::3             1230                       # Per bank write bursts
system.mem_ctrls2.perBankWrBursts::4             1444                       # Per bank write bursts
system.mem_ctrls2.perBankWrBursts::5             1307                       # Per bank write bursts
system.mem_ctrls2.perBankWrBursts::6             1272                       # Per bank write bursts
system.mem_ctrls2.perBankWrBursts::7             1159                       # Per bank write bursts
system.mem_ctrls2.perBankWrBursts::8             1238                       # Per bank write bursts
system.mem_ctrls2.perBankWrBursts::9             1423                       # Per bank write bursts
system.mem_ctrls2.perBankWrBursts::10            1313                       # Per bank write bursts
system.mem_ctrls2.perBankWrBursts::11            1117                       # Per bank write bursts
system.mem_ctrls2.perBankWrBursts::12            1369                       # Per bank write bursts
system.mem_ctrls2.perBankWrBursts::13            1484                       # Per bank write bursts
system.mem_ctrls2.perBankWrBursts::14            1268                       # Per bank write bursts
system.mem_ctrls2.perBankWrBursts::15            1127                       # Per bank write bursts
system.mem_ctrls2.numRdRetry                        0                       # Number of times read queue was full causing retry
system.mem_ctrls2.numWrRetry                        0                       # Number of times write queue was full causing retry
system.mem_ctrls2.totGap                  13372441000                       # Total gap between requests
system.mem_ctrls2.readPktSize::0                    0                       # Read request sizes (log2)
system.mem_ctrls2.readPktSize::1                    0                       # Read request sizes (log2)
system.mem_ctrls2.readPktSize::2                    0                       # Read request sizes (log2)
system.mem_ctrls2.readPktSize::3                    0                       # Read request sizes (log2)
system.mem_ctrls2.readPktSize::4                    0                       # Read request sizes (log2)
system.mem_ctrls2.readPktSize::5                    0                       # Read request sizes (log2)
system.mem_ctrls2.readPktSize::6               134585                       # Read request sizes (log2)
system.mem_ctrls2.writePktSize::0                   0                       # Write request sizes (log2)
system.mem_ctrls2.writePktSize::1                   0                       # Write request sizes (log2)
system.mem_ctrls2.writePktSize::2                   0                       # Write request sizes (log2)
system.mem_ctrls2.writePktSize::3                   0                       # Write request sizes (log2)
system.mem_ctrls2.writePktSize::4                   0                       # Write request sizes (log2)
system.mem_ctrls2.writePktSize::5                   0                       # Write request sizes (log2)
system.mem_ctrls2.writePktSize::6               20599                       # Write request sizes (log2)
system.mem_ctrls2.rdQLenPdf::0                  66085                       # What read queue length does an incoming req see
system.mem_ctrls2.rdQLenPdf::1                  34569                       # What read queue length does an incoming req see
system.mem_ctrls2.rdQLenPdf::2                  17498                       # What read queue length does an incoming req see
system.mem_ctrls2.rdQLenPdf::3                   9049                       # What read queue length does an incoming req see
system.mem_ctrls2.rdQLenPdf::4                   4434                       # What read queue length does an incoming req see
system.mem_ctrls2.rdQLenPdf::5                   1912                       # What read queue length does an incoming req see
system.mem_ctrls2.rdQLenPdf::6                    706                       # What read queue length does an incoming req see
system.mem_ctrls2.rdQLenPdf::7                    252                       # What read queue length does an incoming req see
system.mem_ctrls2.rdQLenPdf::8                     54                       # What read queue length does an incoming req see
system.mem_ctrls2.rdQLenPdf::9                     15                       # What read queue length does an incoming req see
system.mem_ctrls2.rdQLenPdf::10                     3                       # What read queue length does an incoming req see
system.mem_ctrls2.rdQLenPdf::11                     0                       # What read queue length does an incoming req see
system.mem_ctrls2.rdQLenPdf::12                     0                       # What read queue length does an incoming req see
system.mem_ctrls2.rdQLenPdf::13                     0                       # What read queue length does an incoming req see
system.mem_ctrls2.rdQLenPdf::14                     0                       # What read queue length does an incoming req see
system.mem_ctrls2.rdQLenPdf::15                     0                       # What read queue length does an incoming req see
system.mem_ctrls2.rdQLenPdf::16                     0                       # What read queue length does an incoming req see
system.mem_ctrls2.rdQLenPdf::17                     0                       # What read queue length does an incoming req see
system.mem_ctrls2.rdQLenPdf::18                     0                       # What read queue length does an incoming req see
system.mem_ctrls2.rdQLenPdf::19                     0                       # What read queue length does an incoming req see
system.mem_ctrls2.rdQLenPdf::20                     0                       # What read queue length does an incoming req see
system.mem_ctrls2.rdQLenPdf::21                     0                       # What read queue length does an incoming req see
system.mem_ctrls2.rdQLenPdf::22                     0                       # What read queue length does an incoming req see
system.mem_ctrls2.rdQLenPdf::23                     0                       # What read queue length does an incoming req see
system.mem_ctrls2.rdQLenPdf::24                     0                       # What read queue length does an incoming req see
system.mem_ctrls2.rdQLenPdf::25                     0                       # What read queue length does an incoming req see
system.mem_ctrls2.rdQLenPdf::26                     0                       # What read queue length does an incoming req see
system.mem_ctrls2.rdQLenPdf::27                     0                       # What read queue length does an incoming req see
system.mem_ctrls2.rdQLenPdf::28                     0                       # What read queue length does an incoming req see
system.mem_ctrls2.rdQLenPdf::29                     0                       # What read queue length does an incoming req see
system.mem_ctrls2.rdQLenPdf::30                     0                       # What read queue length does an incoming req see
system.mem_ctrls2.rdQLenPdf::31                     0                       # What read queue length does an incoming req see
system.mem_ctrls2.wrQLenPdf::0                      1                       # What write queue length does an incoming req see
system.mem_ctrls2.wrQLenPdf::1                      1                       # What write queue length does an incoming req see
system.mem_ctrls2.wrQLenPdf::2                      1                       # What write queue length does an incoming req see
system.mem_ctrls2.wrQLenPdf::3                      1                       # What write queue length does an incoming req see
system.mem_ctrls2.wrQLenPdf::4                      1                       # What write queue length does an incoming req see
system.mem_ctrls2.wrQLenPdf::5                      1                       # What write queue length does an incoming req see
system.mem_ctrls2.wrQLenPdf::6                      1                       # What write queue length does an incoming req see
system.mem_ctrls2.wrQLenPdf::7                      1                       # What write queue length does an incoming req see
system.mem_ctrls2.wrQLenPdf::8                      1                       # What write queue length does an incoming req see
system.mem_ctrls2.wrQLenPdf::9                      1                       # What write queue length does an incoming req see
system.mem_ctrls2.wrQLenPdf::10                     1                       # What write queue length does an incoming req see
system.mem_ctrls2.wrQLenPdf::11                     1                       # What write queue length does an incoming req see
system.mem_ctrls2.wrQLenPdf::12                     1                       # What write queue length does an incoming req see
system.mem_ctrls2.wrQLenPdf::13                     1                       # What write queue length does an incoming req see
system.mem_ctrls2.wrQLenPdf::14                     1                       # What write queue length does an incoming req see
system.mem_ctrls2.wrQLenPdf::15                   462                       # What write queue length does an incoming req see
system.mem_ctrls2.wrQLenPdf::16                   514                       # What write queue length does an incoming req see
system.mem_ctrls2.wrQLenPdf::17                   899                       # What write queue length does an incoming req see
system.mem_ctrls2.wrQLenPdf::18                  1176                       # What write queue length does an incoming req see
system.mem_ctrls2.wrQLenPdf::19                  1247                       # What write queue length does an incoming req see
system.mem_ctrls2.wrQLenPdf::20                  1262                       # What write queue length does an incoming req see
system.mem_ctrls2.wrQLenPdf::21                  1254                       # What write queue length does an incoming req see
[...]
system.ruby.L1Cache_Controller.MR.Load::total        47473                      
system.ruby.L1Cache_Controller.MR.Ifetch |         994     16.65%     16.65% |         215      3.60%     20.25% |         186      3.12%     23.36% |         200      3.35%     26.71% |         204      3.42%     30.13% |           0      0.00%     30.13% |           0      0.00%     30.13% |        1008     16.88%     47.01% |         974     16.31%     63.32% |         192      3.22%     66.54% |        1003     16.80%     83.34% |         191      3.20%     86.53% |         211      3.53%     90.07% |         188      3.15%     93.22% |         187      3.13%     96.35% |         218      3.65%    100.00%
system.ruby.L1Cache_Controller.MR.Ifetch::total         5971                      
system.ruby.L1Cache_Controller.MR.Store  |           8      6.61%      6.61% |           9      7.44%     14.05% |           8      6.61%     20.66% |           9      7.44%     28.10% |           8      6.61%     34.71% |           0      0.00%     34.71% |           0      0.00%     34.71% |          10      8.26%     42.98% |           7      5.79%     48.76% |           8      6.61%     55.37% |          10      8.26%     63.64% |           9      7.44%     71.07% |          10      8.26%     79.34% |           9      7.44%     86.78% |           8      6.61%     93.39% |           8      6.61%    100.00%
system.ruby.L1Cache_Controller.MR.Store::total          121                      
system.ruby.L1Cache_Controller.MMR.Load  |        1226      5.85%      5.85% |        2006      9.58%     15.43% |        1035      4.94%     20.37% |         854      4.08%     24.44% |         876      4.18%     28.63% |           0      0.00%     28.63% |           0      0.00%     28.63% |        1398      6.67%     35.30% |        5501     26.26%     61.56% |         889      4.24%     65.80% |        1067      5.09%     70.89% |        1026      4.90%     75.79% |         848      4.05%     79.84% |         944      4.51%     84.34% |        1563      7.46%     91.80% |        1717      8.20%    100.00%
system.ruby.L1Cache_Controller.MMR.Load::total        20950                      
system.ruby.L1Cache_Controller.MMR.Store |        1384      7.58%      7.58% |        1588      8.70%     16.29% |        1554      8.52%     24.80% |        1514      8.30%     33.10% |        1485      8.14%     41.24% |           0      0.00%     41.24% |           0      0.00%     41.24% |        1299      7.12%     48.35% |         867      4.75%     53.10% |         683      3.74%     56.85% |        1490      8.16%     65.01% |        1448      7.93%     72.95% |        1016      5.57%     78.51% |        1460      8.00%     86.51% |        1594      8.73%     95.25% |         867      4.75%    100.00%
system.ruby.L1Cache_Controller.MMR.Store::total        18249                      
system.ruby.L1Cache_Controller.IM.Ack    |      160544      8.69%      8.69% |      154432      8.36%     17.05% |      155855      8.44%     25.49% |      153371      8.30%     33.80% |      153374      8.30%     42.10% |        5859      0.32%     42.42% |        5939      0.32%     42.74% |      158431      8.58%     51.32% |       37353      2.02%     53.34% |       37929      2.05%     55.39% |      158636      8.59%     63.98% |      157418      8.52%     72.50% |      153929      8.33%     80.84% |      156100      8.45%     89.29% |      160817      8.71%     98.00% |       37018      2.00%    100.00%
system.ruby.L1Cache_Controller.IM.Ack::total      1847005                      
system.ruby.L1Cache_Controller.IM.Exclusive_Data |       10723      8.68%      8.68% |       10312      8.34%     17.02% |       10407      8.42%     25.44% |       10241      8.29%     33.73% |       10243      8.29%     42.02% |         525      0.42%     42.44% |         525      0.42%     42.87% |       10572      8.55%     51.42% |        2500      2.02%     53.44% |        2545      2.06%     55.50% |       10591      8.57%     64.07% |       10504      8.50%     72.57% |       10273      8.31%     80.88% |       10417      8.43%     89.31% |       10731      8.68%     98.00% |        2477      2.00%    100.00%
system.ruby.L1Cache_Controller.IM.Exclusive_Data::total       123586                      
system.ruby.L1Cache_Controller.SM.Ack    |           6      4.55%      4.55% |           6      4.55%      9.09% |           7      5.30%     14.39% |           6      4.55%     18.94% |           7      5.30%     24.24% |           0      0.00%     24.24% |           0      0.00%     24.24% |          10      7.58%     31.82% |          11      8.33%     40.15% |           7      5.30%     45.45% |          12      9.09%     54.55% |          12      9.09%     63.64% |          13      9.85%     73.48% |          10      7.58%     81.06% |          11      8.33%     89.39% |          14     10.61%    100.00%
system.ruby.L1Cache_Controller.SM.Ack::total          132                      
system.ruby.L1Cache_Controller.SM.Data   |           1      7.14%      7.14% |           1      7.14%     14.29% |           1      7.14%     21.43% |           1      7.14%     28.57% |           1      7.14%     35.71% |           0      0.00%     35.71% |           0      0.00%     35.71% |           1      7.14%     42.86% |           1      7.14%     50.00% |           1      7.14%     57.14% |           1      7.14%     64.29% |           1      7.14%     71.43% |           1      7.14%     78.57% |           1      7.14%     85.71% |           1      7.14%     92.86% |           1      7.14%    100.00%
system.ruby.L1Cache_Controller.SM.Data::total           14                      
system.ruby.L1Cache_Controller.ISM.Ack   |           8     12.50%     12.50% |           8     12.50%     25.00% |           7     10.94%     35.94% |           8     12.50%     48.44% |           7     10.94%     59.38% |           0      0.00%     59.38% |           0      0.00%     59.38% |           4      6.25%     65.62% |           3      4.69%     70.31% |           7     10.94%     81.25% |           2      3.12%     84.38% |           2      3.12%     87.50% |           1      1.56%     89.06% |           4      6.25%     95.31% |           3      4.69%    100.00% |           0      0.00%    100.00%
system.ruby.L1Cache_Controller.ISM.Ack::total           64                      
system.ruby.L1Cache_Controller.ISM.All_acks_no_sharers |           1      7.14%      7.14% |           1      7.14%     14.29% |           1      7.14%     21.43% |           1      7.14%     28.57% |           1      7.14%     35.71% |           0      0.00%     35.71% |           0      0.00%     35.71% |           1      7.14%     42.86% |           1      7.14%     50.00% |           1      7.14%     57.14% |           1      7.14%     64.29% |           1      7.14%     71.43% |           1      7.14%     78.57% |           1      7.14%     85.71% |           1      7.14%     92.86% |           1      7.14%    100.00%
system.ruby.L1Cache_Controller.ISM.All_acks_no_sharers::total           14                      
system.ruby.L1Cache_Controller.M_W.Load  |           0      0.00%      0.00% |           0      0.00%      0.00% |           0      0.00%      0.00% |           0      0.00%      0.00% |           0      0.00%      0.00% |           0      0.00%      0.00% |           0      0.00%      0.00% |           0      0.00%      0.00% |           0      0.00%      0.00% |           1    100.00%    100.00% |           0      0.00%    100.00% |           0      0.00%    100.00% |           0      0.00%    100.00% |           0      0.00%    100.00% |           0      0.00%    100.00% |           0      0.00%    100.00%
system.ruby.L1Cache_Controller.M_W.Load::total            1                      
system.ruby.L1Cache_Controller.M_W.Store |           3     42.86%     42.86% |           0      0.00%     42.86% |           1     14.29%     57.14% |           0      0.00%     57.14% |           0      0.00%     57.14% |           0      0.00%     57.14% |           0      0.00%     57.14% |           0      0.00%     57.14% |           2     28.57%     85.71% |           0      0.00%     85.71% |           0      0.00%     85.71% |           0      0.00%     85.71% |           0      0.00%     85.71% |           0      0.00%     85.71% |           1     14.29%    100.00% |           0      0.00%    100.00%
system.ruby.L1Cache_Controller.M_W.Store::total            7                      
system.ruby.L1Cache_Controller.M_W.Ack   |         765      7.22%      7.22% |         625      5.90%     13.12% |         647      6.11%     19.23% |         636      6.01%     25.24% |         725      6.85%     32.08% |        1710     16.15%     48.23% |        1632     15.41%     63.64% |         457      4.31%     67.95% |         418      3.95%     71.90% |         642      6.06%     77.96% |         528      4.99%     82.95% |         329      3.11%     86.05% |         341      3.22%     89.27% |         394      3.72%     92.99% |         418      3.95%     96.94% |         324      3.06%    100.00%
system.ruby.L1Cache_Controller.M_W.Ack::total        10591                      
system.ruby.L1Cache_Controller.M_W.All_acks_no_sharers |       41974      9.98%      9.98% |        9519      2.26%     12.24% |       25013      5.95%     18.19% |       17212      4.09%     22.28% |       17160      4.08%     26.36% |         364      0.09%     26.44% |         364      0.09%     26.53% |       41466      9.86%     36.39% |       57119     13.58%     49.96% |        9519      2.26%     52.23% |       33277      7.91%     60.14% |       33023      7.85%     67.99% |        9520      2.26%     70.25% |       25195      5.99%     76.24% |       49955     11.87%     88.11% |       50006     11.89%    100.00%
system.ruby.L1Cache_Controller.M_W.All_acks_no_sharers::total       420686                      
system.ruby.L1Cache_Controller.MM_W.Store |           2     28.57%     28.57% |           0      0.00%     28.57% |           0      0.00%     28.57% |           2     28.57%     57.14% |           0      0.00%     57.14% |           0      0.00%     57.14% |           0      0.00%     57.14% |           0      0.00%     57.14% |           2     28.57%     85.71% |           0      0.00%     85.71% |           0      0.00%     85.71% |           0      0.00%     85.71% |           1     14.29%    100.00% |           0      0.00%    100.00% |           0      0.00%    100.00% |           0      0.00%    100.00%
system.ruby.L1Cache_Controller.MM_W.Store::total            7                      
system.ruby.L1Cache_Controller.MM_W.Ack  |         283      4.93%      4.93% |         222      3.87%      8.81% |         226      3.94%     12.75% |         218      3.80%     16.55% |         245      4.27%     20.82% |        1666     29.05%     49.87% |        1586     27.65%     77.52% |         123      2.14%     79.67% |         124      2.16%     81.83% |         220      3.84%     85.67% |         203      3.54%     89.21% |         116      2.02%     91.23% |         140      2.44%     93.67% |         129      2.25%     95.92% |         123      2.14%     98.06% |         111      1.94%    100.00%
system.ruby.L1Cache_Controller.MM_W.Ack::total         5735                      
system.ruby.L1Cache_Controller.MM_W.All_acks_no_sharers |       10726      8.68%      8.68% |       10312      8.34%     17.02% |       10408      8.42%     25.44% |       10241      8.29%     33.73% |       10243      8.29%     42.02% |         525      0.42%     42.44% |         525      0.42%     42.87% |       10572      8.55%     51.42% |        2502      2.02%     53.44% |        2545      2.06%     55.50% |       10591      8.57%     64.07% |       10504      8.50%     72.57% |       10273      8.31%     80.88% |       10417      8.43%     89.31% |       10732      8.68%     98.00% |        2477      2.00%    100.00%
system.ruby.L1Cache_Controller.MM_W.All_acks_no_sharers::total       123593                      
system.ruby.L1Cache_Controller.IS.Ack    |      628813      9.98%      9.98% |      142090      2.26%     12.24% |      374491      5.95%     18.19% |      257473      4.09%     22.27% |      256605      4.07%     26.35% |        3386      0.05%     26.40% |        3464      0.06%     26.46% |      621464      9.87%     36.32% |      856327     13.60%     49.92% |      142071      2.26%     52.18% |      498563      7.92%     60.09% |      494953      7.86%     67.95% |      142394      2.26%     70.21% |      377462      5.99%     76.21% |      748859     11.89%     88.10% |      749703     11.90%    100.00%
system.ruby.L1Cache_Controller.IS.Ack::total      6298118                      
system.ruby.L1Cache_Controller.IS.Shared_Data |           1      7.14%      7.14% |           1      7.14%     14.29% |           1      7.14%     21.43% |           1      7.14%     28.57% |           1      7.14%     35.71% |           0      0.00%     35.71% |           0      0.00%     35.71% |           1      7.14%     42.86% |           1      7.14%     50.00% |           1      7.14%     57.14% |           1      7.14%     64.29% |           1      7.14%     71.43% |           1      7.14%     78.57% |           1      7.14%     85.71% |           1      7.14%     92.86% |           1      7.14%    100.00%
system.ruby.L1Cache_Controller.IS.Shared_Data::total           14                      
system.ruby.L1Cache_Controller.IS.Exclusive_Data |       41977      9.98%      9.98% |        9519      2.26%     12.24% |       25014      5.95%     18.19% |       17212      4.09%     22.28% |       17160      4.08%     26.36% |         364      0.09%     26.44% |         364      0.09%     26.53% |       41466      9.86%     36.39% |       57121     13.58%     49.96% |        9519      2.26%     52.23% |       33277      7.91%     60.14% |       33023      7.85%     67.99% |        9520      2.26%     70.25% |       25195      5.99%     76.24% |       49956     11.87%     88.11% |       50006     11.89%    100.00%
system.ruby.L1Cache_Controller.IS.Exclusive_Data::total       420693                      
system.ruby.L1Cache_Controller.SS.Ack    |           8      8.89%      8.89% |           9     10.00%     18.89% |           9     10.00%     28.89% |          10     11.11%     40.00% |           9     10.00%     50.00% |           0      0.00%     50.00% |           0      0.00%     50.00% |           8      8.89%     58.89% |           6      6.67%     65.56% |          11     12.22%     77.78% |           3      3.33%     81.11% |           2      2.22%     83.33% |           4      4.44%     87.78% |           8      8.89%     96.67% |           1      1.11%     97.78% |           2      2.22%    100.00%
system.ruby.L1Cache_Controller.SS.Ack::total           90                      
system.ruby.L1Cache_Controller.SS.All_acks |           1      7.14%      7.14% |           1      7.14%     14.29% |           1      7.14%     21.43% |           1      7.14%     28.57% |           1      7.14%     35.71% |           0      0.00%     35.71% |           0      0.00%     35.71% |           1      7.14%     42.86% |           1      7.14%     50.00% |           1      7.14%     57.14% |           1      7.14%     64.29% |           1      7.14%     71.43% |           1      7.14%     78.57% |           1      7.14%     85.71% |           1      7.14%     92.86% |           1      7.14%    100.00%
system.ruby.L1Cache_Controller.SS.All_acks::total           14                      
system.ruby.L1Cache_Controller.MI.Load   |           9     19.57%     19.57% |           0      0.00%     19.57% |           1      2.17%     21.74% |           0      0.00%     21.74% |           0      0.00%     21.74% |           0      0.00%     21.74% |           0      0.00%     21.74% |           5     10.87%     32.61% |          12     26.09%     58.70% |           0      0.00%     58.70% |           1      2.17%     60.87% |           4      8.70%     69.57% |           0      0.00%     69.57% |           1      2.17%     71.74% |           3      6.52%     78.26% |          10     21.74%    100.00%
system.ruby.L1Cache_Controller.MI.Load::total           46                      
system.ruby.L1Cache_Controller.MI.Store  |           5     41.67%     41.67% |           0      0.00%     41.67% |           0      0.00%     41.67% |           0      0.00%     41.67% |           0      0.00%     41.67% |           0      0.00%     41.67% |           0      0.00%     41.67% |           2     16.67%     58.33% |           0      0.00%     58.33% |           0      0.00%     58.33% |           2     16.67%     75.00% |           2     16.67%     91.67% |           0      0.00%     91.67% |           0      0.00%     91.67% |           0      0.00%     91.67% |           1      8.33%    100.00%
system.ruby.L1Cache_Controller.MI.Store::total           12                      
system.ruby.L1Cache_Controller.MI.Writeback_Ack |       18429     13.90%     13.90% |           2      0.00%     13.90% |        2895      2.18%     16.08% |         264      0.20%     16.28% |         374      0.28%     16.56% |           0      0.00%     16.56% |           0      0.00%     16.56% |       17760     13.39%     29.96% |       25414     19.16%     49.12% |           7      0.01%     49.13% |        9699      7.31%     56.44% |        9494      7.16%     63.60% |          57      0.04%     63.64% |        3511      2.65%     66.29% |       26380     19.89%     86.18% |       18321     13.82%    100.00%
system.ruby.L1Cache_Controller.MI.Writeback_Ack::total       132607                      
system.ruby.L1Cache_Controller.MT.Load   |           0      0.00%      0.00% |           1    100.00%    100.00% |           0      0.00%    100.00% |           0      0.00%    100.00% |           0      0.00%    100.00% |           0      0.00%    100.00% |           0      0.00%    100.00% |           0      0.00%    100.00% |           0      0.00%    100.00% |           0      0.00%    100.00% |           0      0.00%    100.00% |           0      0.00%    100.00% |           0      0.00%    100.00% |           0      0.00%    100.00% |           0      0.00%    100.00% |           0      0.00%    100.00%
system.ruby.L1Cache_Controller.MT.Load::total            1                      
system.ruby.L1Cache_Controller.MT.Complete_L2_to_L1 |        4358      8.14%      8.14% |        3591      6.70%     14.84% |        3672      6.86%     21.70% |        3593      6.71%     28.40% |        3635      6.79%     35.19% |           0      0.00%     35.19% |           0      0.00%     35.19% |        4592      8.57%     43.76% |        4269      7.97%     51.73% |        3580      6.68%     58.42% |        4366      8.15%     66.57% |        3549      6.63%     73.19% |        3636      6.79%     79.98% |        3688      6.89%     86.86% |        3459      6.46%     93.32% |        3577      6.68%    100.00%
system.ruby.L1Cache_Controller.MT.Complete_L2_to_L1::total        53565                      
system.ruby.L1Cache_Controller.MMT.Complete_L2_to_L1 |        2610      6.66%      6.66% |        3594      9.17%     15.83% |        2589      6.60%     22.43% |        2368      6.04%     28.47% |        2361      6.02%     34.50% |           0      0.00%     34.50% |           0      0.00%     34.50% |        2697      6.88%     41.38% |        6368     16.25%     57.62% |        1572      4.01%     61.63% |        2557      6.52%     68.15% |        2474      6.31%     74.47% |        1864      4.76%     79.22% |        2404      6.13%     85.35% |        3157      8.05%     93.41% |        2584      6.59%    100.00%
system.ruby.L1Cache_Controller.MMT.Complete_L2_to_L1::total        39199                      

---------- End Simulation Statistics   ----------
