
---------- Begin Simulation Statistics ----------
sim_seconds                                  0.016035                       # Number of seconds simulated
sim_ticks                                 16034886000                       # Number of ticks simulated
final_tick                                16034886000                       # Number of ticks from beginning of simulation (restored from checkpoints and never reset)
sim_freq                                 1000000000000                       # Frequency of simulated ticks
host_inst_rate                                  53248                       # Simulator instruction rate (inst/s)
host_op_rate                                    92336                       # Simulator op (including micro ops) rate (op/s)
host_tick_rate                               18547264                       # Simulator tick rate (ticks/s)
host_mem_usage                                2037068                       # Number of bytes of host memory used
host_seconds                                   864.54                       # Real time elapsed on the host
sim_insts                                    46034768                       # Number of instructions simulated
sim_ops                                      79828366                       # Number of ops (including micro ops) simulated
system.voltage_domain.voltage                       1                       # Voltage in Volts
system.clk_domain.clock                          1000                       # Clock period in ticks
system.mem_ctrls0.pwrStateResidencyTicks::UNDEFINED  16034886000                       # Cumulative time (in ticks) in various power states
system.mem_ctrls0.bytes_read::ruby.dir_cntrl0      9895808                       # Number of bytes read from this memory
system.mem_ctrls0.bytes_read::total           9895808                       # Number of bytes read from this memory
system.mem_ctrls0.bytes_written::ruby.dir_cntrl0      1055296                       # Number of bytes written to this memory
system.mem_ctrls0.bytes_written::total        1055296                       # Number of bytes written to this memory
system.mem_ctrls0.num_reads::ruby.dir_cntrl0       154622                       # Number of read requests responded to by this memory
system.mem_ctrls0.num_reads::total             154622                       # Number of read requests responded to by this memory
system.mem_ctrls0.num_writes::ruby.dir_cntrl0        16489                       # Number of write requests responded to by this memory
system.mem_ctrls0.num_writes::total             16489                       # Number of write requests responded to by this memory
system.mem_ctrls0.bw_read::ruby.dir_cntrl0    617142398                       # Total read bandwidth from this memory (bytes/s)
system.mem_ctrls0.bw_read::total            617142398                       # Total read bandwidth from this memory (bytes/s)
system.mem_ctrls0.bw_write::ruby.dir_cntrl0     65812504                       # Write bandwidth from this memory (bytes/s)
system.mem_ctrls0.bw_write::total            65812504                       # Write bandwidth from this memory (bytes/s)
system.mem_ctrls0.bw_total::ruby.dir_cntrl0    682954902                       # Total bandwidth to/from this memory (bytes/s)
system.mem_ctrls0.bw_total::total           682954902                       # Total bandwidth to/from this memory (bytes/s)
system.mem_ctrls0.readReqs                     154622                       # Number of read requests accepted
system.mem_ctrls0.avgNetLat                      0.00                       # Average network latency to DRAM controller
system.mem_ctrls0.writeReqs                     16489                       # Number of write requests accepted
system.mem_ctrls0.readBursts                   154622                       # Number of DRAM read bursts, including those serviced by the write queue
system.mem_ctrls0.writeBursts                   16489                       # Number of DRAM write bursts, including those merged in the write queue
system.mem_ctrls0.bytesReadDRAM               9895488                       # Total number of bytes read from DRAM
system.mem_ctrls0.bytesReadWrQ                    320                       # Total number of bytes read from write queue
system.mem_ctrls0.bytesWritten                1054208                       # Total number of bytes written to DRAM
system.mem_ctrls0.bytesReadSys                9895808                       # Total read bytes from the system interface side
system.mem_ctrls0.bytesWrittenSys             1055296                       # Total written bytes from the system interface side
system.mem_ctrls0.servicedByWrQ                     5                       # Number of DRAM read bursts serviced by the write queue
system.mem_ctrls0.mergedWrBursts                    0                       # Number of DRAM write bursts merged with an existing one
system.mem_ctrls0.neitherReadNorWriteReqs            0                       # Number of requests that are neither read nor write
system.mem_ctrls0.perBankRdBursts::0             9940                       # Per bank write bursts
system.mem_ctrls0.perBankRdBursts::1             9686                       # Per bank write bursts
system.mem_ctrls0.perBankRdBursts::2             9495                       # Per bank write bursts
system.mem_ctrls0.perBankRdBursts::3             9559                       # Per bank write bursts
system.mem_ctrls0.perBankRdBursts::4             9519                       # Per bank write bursts
system.mem_ctrls0.perBankRdBursts::5             9259                       # Per bank write bursts
system.mem_ctrls0.perBankRdBursts::6             9357                       # Per bank write bursts
system.mem_ctrls0.perBankRdBursts::7             9635                       # Per bank write bursts
system.mem_ctrls0.perBankRdBursts::8             9523                       # Per bank write bursts
system.mem_ctrls0.perBankRdBursts::9             9388                       # Per bank write bursts
system.mem_ctrls0.perBankRdBursts::10           10000                       # Per bank write bursts
system.mem_ctrls0.perBankRdBursts::11            9807                       # Per bank write bursts
system.mem_ctrls0.perBankRdBursts::12            9826                       # Per bank write bursts
system.mem_ctrls0.perBankRdBursts::13            9910                       # Per bank write bursts
system.mem_ctrls0.perBankRdBursts::14            9975                       # Per bank write bursts
system.mem_ctrls0.perBankRdBursts::15            9738                       # Per bank write bursts
system.mem_ctrls0.perBankWrBursts::0             1042                       # Per bank write bursts
system.mem_ctrls0.perBankWrBursts::1              973                       # Per bank write bursts
system.mem_ctrls0.perBankWrBursts::2              974                       # Per bank write bursts
system.mem_ctrls0.perBankWrBursts::3              981                       # Per bank write bursts
system.mem_ctrls0.perBankWrBursts::4              961                       # Per bank write bursts
system.mem_ctrls0.perBankWrBursts::5              851                       # Per bank write bursts
system.mem_ctrls0.perBankWrBursts::6             1007                       # Per bank write bursts
system.mem_ctrls0.perBankWrBursts::7             1182                       # Per bank write bursts
system.mem_ctrls0.perBankWrBursts::8             1117                       # Per bank write bursts
system.mem_ctrls0.perBankWrBursts::9              961                       # Per bank write bursts
system.mem_ctrls0.perBankWrBursts::10            1042                       # Per bank write bursts
system.mem_ctrls0.perBankWrBursts::11            1019                       # Per bank write bursts
system.mem_ctrls0.perBankWrBursts::12            1126                       # Per bank write bursts
system.mem_ctrls0.perBankWrBursts::13            1111                       # Per bank write bursts
system.mem_ctrls0.perBankWrBursts::14            1089                       # Per bank write bursts
system.mem_ctrls0.perBankWrBursts::15            1036                       # Per bank write bursts
system.mem_ctrls0.numRdRetry                        0                       # Number of times read queue was full causing retry
system.mem_ctrls0.numWrRetry                        0                       # Number of times write queue was full causing retry
system.mem_ctrls0.totGap                  16033683000                       # Total gap between requests
system.mem_ctrls0.readPktSize::0                    0                       # Read request sizes (log2)
system.mem_ctrls0.readPktSize::1                    0                       # Read request sizes (log2)
system.mem_ctrls0.readPktSize::2                    0                       # Read request sizes (log2)
system.mem_ctrls0.readPktSize::3                    0                       # Read request sizes (log2)
system.mem_ctrls0.readPktSize::4                    0                       # Read request sizes (log2)
system.mem_ctrls0.readPktSize::5                    0                       # Read request sizes (log2)
system.mem_ctrls0.readPktSize::6               154622                       # Read request sizes (log2)
system.mem_ctrls0.writePktSize::0                   0                       # Write request sizes (log2)
system.mem_ctrls0.writePktSize::1                   0                       # Write request sizes (log2)
system.mem_ctrls0.writePktSize::2                   0                       # Write request sizes (log2)
system.mem_ctrls0.writePktSize::3                   0                       # Write request sizes (log2)
system.mem_ctrls0.writePktSize::4                   0                       # Write request sizes (log2)
system.mem_ctrls0.writePktSize::5                   0                       # Write request sizes (log2)
system.mem_ctrls0.writePktSize::6               16489                       # Write request sizes (log2)
system.mem_ctrls0.rdQLenPdf::0                  76566                       # What read queue length does an incoming req see
system.mem_ctrls0.rdQLenPdf::1                  40749                       # What read queue length does an incoming req see
system.mem_ctrls0.rdQLenPdf::2                  20710                       # What read queue length does an incoming req see
system.mem_ctrls0.rdQLenPdf::3                   9877                       # What read queue length does an incoming req see
system.mem_ctrls0.rdQLenPdf::4                   4249                       # What read queue length does an incoming req see
system.mem_ctrls0.rdQLenPdf::5                   1644                       # What read queue length does an incoming req see
system.mem_ctrls0.rdQLenPdf::6                    584                       # What read queue length does an incoming req see
system.mem_ctrls0.rdQLenPdf::7                    181                       # What read queue length does an incoming req see
system.mem_ctrls0.rdQLenPdf::8                     50                       # What read queue length does an incoming req see
system.mem_ctrls0.rdQLenPdf::9                      7                       # What read queue length does an incoming req see
system.mem_ctrls0.rdQLenPdf::10                     0                       # What read queue length does an incoming req see
system.mem_ctrls0.rdQLenPdf::11                     0                       # What read queue length does an incoming req see
system.mem_ctrls0.rdQLenPdf::12                     0                       # What read queue length does an incoming req see
system.mem_ctrls0.rdQLenPdf::13                     0                       # What read queue length does an incoming req see
system.mem_ctrls0.rdQLenPdf::14                     0                       # What read queue length does an incoming req see
system.mem_ctrls0.rdQLenPdf::15                     0                       # What read queue length does an incoming req see
system.mem_ctrls0.rdQLenPdf::16                     0                       # What read queue length does an incoming req see
system.mem_ctrls0.rdQLenPdf::17                     0                       # What read queue length does an incoming req see
system.mem_ctrls0.rdQLenPdf::18                     0                       # What read queue length does an incoming req see
system.mem_ctrls0.rdQLenPdf::19                     0                       # What read queue length does an incoming req see
system.mem_ctrls0.rdQLenPdf::20                     0                       # What read queue length does an incoming req see
system.mem_ctrls0.rdQLenPdf::21                     0                       # What read queue length does an incoming req see
system.mem_ctrls0.rdQLenPdf::22                     0                       # What read queue length does an incoming req see
system.mem_ctrls0.rdQLenPdf::23                     0                       # What read queue length does an incoming req see
system.mem_ctrls0.rdQLenPdf::24                     0                       # What read queue length does an incoming req see
system.mem_ctrls0.rdQLenPdf::25                     0                       # What read queue length does an incoming req see
system.mem_ctrls0.rdQLenPdf::26                     0                       # What read queue length does an incoming req see
system.mem_ctrls0.rdQLenPdf::27                     0                       # What read queue length does an incoming req see
system.mem_ctrls0.rdQLenPdf::28                     0                       # What read queue length does an incoming req see
system.mem_ctrls0.rdQLenPdf::29                     0                       # What read queue length does an incoming req see
system.mem_ctrls0.rdQLenPdf::30                     0                       # What read queue length does an incoming req see
system.mem_ctrls0.rdQLenPdf::31                     0                       # What read queue length does an incoming req see
system.mem_ctrls0.wrQLenPdf::0                      1                       # What write queue length does an incoming req see
system.mem_ctrls0.wrQLenPdf::1                      1                       # What write queue length does an incoming req see
system.mem_ctrls0.wrQLenPdf::2                      1                       # What write queue length does an incoming req see
system.mem_ctrls0.wrQLenPdf::3                      1                       # What write queue length does an incoming req see
system.mem_ctrls0.wrQLenPdf::4                      1                       # What write queue length does an incoming req see
system.mem_ctrls0.wrQLenPdf::5                      1                       # What write queue length does an incoming req see
system.mem_ctrls0.wrQLenPdf::6                      1                       # What write queue length does an incoming req see
system.mem_ctrls0.wrQLenPdf::7                      1                       # What write queue length does an incoming req see
system.mem_ctrls0.wrQLenPdf::8                      1                       # What write queue length does an incoming req see
system.mem_ctrls0.wrQLenPdf::9                      1                       # What write queue length does an incoming req see
system.mem_ctrls0.wrQLenPdf::10                     1                       # What write queue length does an incoming req see
system.mem_ctrls0.wrQLenPdf::11                     1                       # What write queue length does an incoming req see
system.mem_ctrls0.wrQLenPdf::12                     1                       # What write queue length does an incoming req see
system.mem_ctrls0.wrQLenPdf::13                     1                       # What write queue length does an incoming req see
system.mem_ctrls0.wrQLenPdf::14                     1                       # What write queue length does an incoming req see
system.mem_ctrls0.wrQLenPdf::15                   210                       # What write queue length does an incoming req see
system.mem_ctrls0.wrQLenPdf::16                   265                       # What write queue length does an incoming req see
system.mem_ctrls0.wrQLenPdf::17                   683                       # What write queue length does an incoming req see
system.mem_ctrls0.wrQLenPdf::18                   952                       # What write queue length does an incoming req see
system.mem_ctrls0.wrQLenPdf::19                  1035                       # What write queue length does an incoming req see
system.mem_ctrls0.wrQLenPdf::20                  1036                       # What write queue length does an incoming req see
system.mem_ctrls0.wrQLenPdf::21                  1033                       # What write queue length does an incoming req see
system.mem_ctrls0.wrQLenPdf::22                  1034                       # What write queue length does an incoming req see
system.mem_ctrls0.wrQLenPdf::23                  1023                       # What write queue length does an incoming req see
system.mem_ctrls0.wrQLenPdf::24                  1025                       # What write queue length does an incoming req see
system.mem_ctrls0.wrQLenPdf::25                  1024                       # What write queue length does an incoming req see
system.mem_ctrls0.wrQLenPdf::26                  1019                       # What write queue length does an incoming req see
system.mem_ctrls0.wrQLenPdf::27                  1017                       # What write queue length does an incoming req see
system.mem_ctrls0.wrQLenPdf::28                  1017                       # What write queue length does an incoming req see
system.mem_ctrls0.wrQLenPdf::29                  1012                       # What write queue length does an incoming req see
system.mem_ctrls0.wrQLenPdf::30                  1025                       # What write queue length does an incoming req see
system.mem_ctrls0.wrQLenPdf::31                  1024                       # What write queue length does an incoming req see
system.mem_ctrls0.wrQLenPdf::32                  1014                       # What write queue length does an incoming req see
system.mem_ctrls0.wrQLenPdf::33                    20                       # What write queue length does an incoming req see
system.mem_ctrls0.wrQLenPdf::34                     4                       # What write queue length does an incoming req see
system.mem_ctrls0.wrQLenPdf::35                     2                       # What write queue length does an incoming req see
system.mem_ctrls0.wrQLenPdf::36                     0                       # What write queue length does an incoming req see
system.mem_ctrls0.wrQLenPdf::37                     0                       # What write queue length does an incoming req see
system.mem_ctrls0.wrQLenPdf::38                     0                       # What write queue length does an incoming req see
system.mem_ctrls0.wrQLenPdf::39                     0                       # What write queue length does an incoming req see
system.mem_ctrls0.wrQLenPdf::40                     0                       # What write queue length does an incoming req see
system.mem_ctrls0.wrQLenPdf::41                     0                       # What write queue length does an incoming req see
system.mem_ctrls0.wrQLenPdf::42                     0                       # What write queue length does an incoming req see
system.mem_ctrls0.wrQLenPdf::43                     0                       # What write queue length does an incoming req see
system.mem_ctrls0.wrQLenPdf::44                     0                       # What write queue length does an incoming req see
system.mem_ctrls0.wrQLenPdf::45                     0                       # What write queue length does an incoming req see
system.mem_ctrls0.wrQLenPdf::46                     0                       # What write queue length does an incoming req see
system.mem_ctrls0.wrQLenPdf::47                     0                       # What write queue length does an incoming req see
system.mem_ctrls0.wrQLenPdf::48                     0                       # What write queue length does an incoming req see
system.mem_ctrls0.wrQLenPdf::49                     0                       # What write queue length does an incoming req see
system.mem_ctrls0.wrQLenPdf::50                     0                       # What write queue length does an incoming req see
system.mem_ctrls0.wrQLenPdf::51                     0                       # What write queue length does an incoming req see
system.mem_ctrls0.wrQLenPdf::52                     0                       # What write queue length does an incoming req see
system.mem_ctrls0.wrQLenPdf::53                     0                       # What write queue length does an incoming req see
system.mem_ctrls0.wrQLenPdf::54                     0                       # What write queue length does an incoming req see
system.mem_ctrls0.wrQLenPdf::55                     0                       # What write queue length does an incoming req see
system.mem_ctrls0.wrQLenPdf::56                     0                       # What write queue length does an incoming req see
system.mem_ctrls0.wrQLenPdf::57                     0                       # What write queue length does an incoming req see
system.mem_ctrls0.wrQLenPdf::58                     0                       # What write queue length does an incoming req see
system.mem_ctrls0.wrQLenPdf::59                     0                       # What write queue length does an incoming req see
system.mem_ctrls0.wrQLenPdf::60                     0                       # What write queue length does an incoming req see
system.mem_ctrls0.wrQLenPdf::61                     0                       # What write queue length does an incoming req see
system.mem_ctrls0.wrQLenPdf::62                     0                       # What write queue length does an incoming req see
system.mem_ctrls0.wrQLenPdf::63                     0                       # What write queue length does an incoming req see
system.mem_ctrls0.bytesPerActivate::samples        94589                       # Bytes accessed per row activation
system.mem_ctrls0.bytesPerActivate::mean   115.756716                       # Bytes accessed per row activation
system.mem_ctrls0.bytesPerActivate::gmean    89.280517                       # Bytes accessed per row activation
system.mem_ctrls0.bytesPerActivate::stdev   123.590194                       # Bytes accessed per row activation
system.mem_ctrls0.bytesPerActivate::0-127        66913     70.74%     70.74% # Bytes accessed per row activation
system.mem_ctrls0.bytesPerActivate::128-255        17700     18.71%     89.45% # Bytes accessed per row activation
system.mem_ctrls0.bytesPerActivate::256-383         4149      4.39%     93.84% # Bytes accessed per row activation
system.mem_ctrls0.bytesPerActivate::384-511         2495      2.64%     96.48% # Bytes accessed per row activation
system.mem_ctrls0.bytesPerActivate::512-639         1595      1.69%     98.16% # Bytes accessed per row activation
system.mem_ctrls0.bytesPerActivate::640-767         1282      1.36%     99.52% # Bytes accessed per row activation
system.mem_ctrls0.bytesPerActivate::768-895          159      0.17%     99.69% # Bytes accessed per row activation
system.mem_ctrls0.bytesPerActivate::896-1023          156      0.16%     99.85% # Bytes accessed per row activation
system.mem_ctrls0.bytesPerActivate::1024-1151          140      0.15%    100.00% # Bytes accessed per row activation
system.mem_ctrls0.bytesPerActivate::total        94589                       # Bytes accessed per row activation
system.mem_ctrls0.rdPerTurnAround::samples          998                       # Reads before turning the bus around for writes
system.mem_ctrls0.rdPerTurnAround::mean    154.923848                       # Reads before turning the bus around for writes
system.mem_ctrls0.rdPerTurnAround::gmean    59.474332                       # Reads before turning the bus around for writes
system.mem_ctrls0.rdPerTurnAround::stdev  2046.514347                       # Reads before turning the bus around for writes
system.mem_ctrls0.rdPerTurnAround::0-2047          996     99.80%     99.80% # Reads before turning the bus around for writes
system.mem_ctrls0.rdPerTurnAround::2048-4095            1      0.10%     99.90% # Reads before turning the bus around for writes
system.mem_ctrls0.rdPerTurnAround::63488-65535            1      0.10%    100.00% # Reads before turning the bus around for writes
system.mem_ctrls0.rdPerTurnAround::total          998                       # Reads before turning the bus around for writes
system.mem_ctrls0.wrPerTurnAround::samples          998                       # Writes before turning the bus around for reads
system.mem_ctrls0.wrPerTurnAround::mean     16.505010                       # Writes before turning the bus around for reads
system.mem_ctrls0.wrPerTurnAround::gmean    16.483832                       # Writes before turning the bus around for reads
system.mem_ctrls0.wrPerTurnAround::stdev     0.853029                       # Writes before turning the bus around for reads
system.mem_ctrls0.wrPerTurnAround::16             727     72.85%     72.85% # Writes before turning the bus around for reads
system.mem_ctrls0.wrPerTurnAround::17              43      4.31%     77.15% # Writes before turning the bus around for reads
system.mem_ctrls0.wrPerTurnAround::18             223     22.34%     99.50% # Writes before turning the bus around for reads
system.mem_ctrls0.wrPerTurnAround::19               5      0.50%    100.00% # Writes before turning the bus around for reads
system.mem_ctrls0.wrPerTurnAround::total          998                       # Writes before turning the bus around for reads
system.mem_ctrls0.totQLat                  4320279750                       # Total ticks spent queuing
system.mem_ctrls0.totMemAccLat             7219348500                       # Total ticks spent from burst creation until serviced by the DRAM
system.mem_ctrls0.totBusLat                 773085000                       # Total ticks spent in databus transfers
system.mem_ctrls0.avgQLat                    27941.82                       # Average queueing delay per DRAM burst
system.mem_ctrls0.avgBusLat                   5000.00                       # Average bus latency per DRAM burst
system.mem_ctrls0.avgMemAccLat               46691.82                       # Average memory access latency per DRAM burst
system.mem_ctrls0.avgRdBW                      617.12                       # Average DRAM read bandwidth in MiByte/s
system.mem_ctrls0.avgWrBW                       65.74                       # Average achieved write bandwidth in MiByte/s
system.mem_ctrls0.avgRdBWSys                   617.14                       # Average system read bandwidth in MiByte/s
system.mem_ctrls0.avgWrBWSys                    65.81                       # Average system write bandwidth in MiByte/s
system.mem_ctrls0.peakBW                     12800.00                       # Theoretical peak bandwidth in MiByte/s
system.mem_ctrls0.busUtil                        5.33                       # Data bus utilization in percentage
system.mem_ctrls0.busUtilRead                    4.82                       # Data bus utilization in percentage for reads
system.mem_ctrls0.busUtilWrite                   0.51                       # Data bus utilization in percentage for writes
system.mem_ctrls0.avgRdQLen                      1.54                       # Average read queue length when enqueuing
system.mem_ctrls0.avgWrQLen                     13.04                       # Average write queue length when enqueuing
system.mem_ctrls0.readRowHits                   73115                       # Number of row buffer hits during reads
system.mem_ctrls0.writeRowHits                   3381                       # Number of row buffer hits during writes
system.mem_ctrls0.readRowHitRate                47.29                       # Row buffer hit rate for reads
system.mem_ctrls0.writeRowHitRate               20.50                       # Row buffer hit rate for writes
system.mem_ctrls0.avgGap                     93703.40                       # Average gap between requests
system.mem_ctrls0.pageHitRate                   44.71                       # Row buffer hit rate, read and write combined
system.mem_ctrls0_0.actEnergy               332966760                       # Energy for activate commands per rank (pJ)
system.mem_ctrls0_0.preEnergy               176976030                       # Energy for precharge commands per rank (pJ)
system.mem_ctrls0_0.readEnergy              545853000                       # Energy for read commands per rank (pJ)
system.mem_ctrls0_0.writeEnergy              41608620                       # Energy for write commands per rank (pJ)
system.mem_ctrls0_0.refreshEnergy        1235426400.000000                       # Energy for refresh commands per rank (pJ)
system.mem_ctrls0_0.actBackEnergy          1445131830                       # Energy for active background per rank (pJ)
system.mem_ctrls0_0.preBackEnergy            36962400                       # Energy for precharge background per rank (pJ)
system.mem_ctrls0_0.actPowerDownEnergy     5025329760                       # Energy for active power-down per rank (pJ)
system.mem_ctrls0_0.prePowerDownEnergy      365103840                       # Energy for precharge power-down per rank (pJ)
system.mem_ctrls0_0.selfRefreshEnergy       223187100                       # Energy for self refresh per rank (pJ)
system.mem_ctrls0_0.totalEnergy            9428864400                       # Total energy per rank (pJ)
system.mem_ctrls0_0.averagePower           588.019249                       # Core power per rank (mW)
system.mem_ctrls0_0.totalIdleTime         12768856500                       # Total Idle time Per DRAM Rank
system.mem_ctrls0_0.memoryStateTime::IDLE     26034250                       # Time in different power states
system.mem_ctrls0_0.memoryStateTime::REF    522885750                       # Time in different power states
system.mem_ctrls0_0.memoryStateTime::SREF    797600250                       # Time in different power states
system.mem_ctrls0_0.memoryStateTime::PRE_PDN    950981500                       # Time in different power states
system.mem_ctrls0_0.memoryStateTime::ACT   2717109500                       # Time in different power states
system.mem_ctrls0_0.memoryStateTime::ACT_PDN  11020274750                       # Time in different power states
system.mem_ctrls0_1.actEnergy               342427260                       # Energy for activate commands per rank (pJ)
system.mem_ctrls0_1.preEnergy               181989225                       # Energy for precharge commands per rank (pJ)
system.mem_ctrls0_1.readEnergy              558112380                       # Energy for read commands per rank (pJ)
system.mem_ctrls0_1.writeEnergy              44375220                       # Energy for write commands per rank (pJ)
system.mem_ctrls0_1.refreshEnergy        1239114240.000000                       # Energy for refresh commands per rank (pJ)
system.mem_ctrls0_1.actBackEnergy          1479098130                       # Energy for active background per rank (pJ)
system.mem_ctrls0_1.preBackEnergy            42553920                       # Energy for precharge background per rank (pJ)
system.mem_ctrls0_1.actPowerDownEnergy     5015914500                       # Energy for active power-down per rank (pJ)
system.mem_ctrls0_1.prePowerDownEnergy      369980160                       # Energy for precharge power-down per rank (pJ)
system.mem_ctrls0_1.selfRefreshEnergy       201525945                       # Energy for self refresh per rank (pJ)
system.mem_ctrls0_1.totalEnergy            9475340250                       # Total energy per rank (pJ)
system.mem_ctrls0_1.averagePower           590.920328                       # Core power per rank (mW)
system.mem_ctrls0_1.totalIdleTime         12679348500                       # Total Idle time Per DRAM Rank
system.mem_ctrls0_1.memoryStateTime::IDLE     39562500                       # Time in different power states
system.mem_ctrls0_1.memoryStateTime::REF    524568000                       # Time in different power states
system.mem_ctrls0_1.memoryStateTime::SREF    716573500                       # Time in different power states
system.mem_ctrls0_1.memoryStateTime::PRE_PDN    963301000                       # Time in different power states
system.mem_ctrls0_1.memoryStateTime::ACT   2790324250                       # Time in different power states
system.mem_ctrls0_1.memoryStateTime::ACT_PDN  11000556750                       # Time in different power states
system.mem_ctrls1.pwrStateResidencyTicks::UNDEFINED  16034886000                       # Cumulative time (in ticks) in various power states
system.mem_ctrls1.bytes_read::ruby.dir_cntrl1      9870336                       # Number of bytes read from this memory
system.mem_ctrls1.bytes_read::total           9870336                       # Number of bytes read from this memory
system.mem_ctrls1.bytes_written::ruby.dir_cntrl1      1049664                       # Number of bytes written to this memory
system.mem_ctrls1.bytes_written::total        1049664                       # Number of bytes written to this memory
system.mem_ctrls1.num_reads::ruby.dir_cntrl1       154224                       # Number of read requests responded to by this memory
system.mem_ctrls1.num_reads::total             154224                       # Number of read requests responded to by this memory
system.mem_ctrls1.num_writes::ruby.dir_cntrl1        16401                       # Number of write requests responded to by this memory
system.mem_ctrls1.num_writes::total             16401                       # Number of write requests responded to by this memory
system.mem_ctrls1.bw_read::ruby.dir_cntrl1    615553862                       # Total read bandwidth from this memory (bytes/s)
system.mem_ctrls1.bw_read::total            615553862                       # Total read bandwidth from this memory (bytes/s)
system.mem_ctrls1.bw_write::ruby.dir_cntrl1     65461270                       # Write bandwidth from this memory (bytes/s)
system.mem_ctrls1.bw_write::total            65461270                       # Write bandwidth from this memory (bytes/s)
system.mem_ctrls1.bw_total::ruby.dir_cntrl1    681015132                       # Total bandwidth to/from this memory (bytes/s)
system.mem_ctrls1.bw_total::total           681015132                       # Total bandwidth to/from this memory (bytes/s)
system.mem_ctrls1.readReqs                     154224                       # Number of read requests accepted
system.mem_ctrls1.avgNetLat                      0.00                       # Average network latency to DRAM controller
system.mem_ctrls1.writeReqs                     16401                       # Number of write requests accepted
system.mem_ctrls1.readBursts                   154224                       # Number of DRAM read bursts, including those serviced by the write queue
system.mem_ctrls1.writeBursts                   16401                       # Number of DRAM write bursts, including those merged in the write queue
system.mem_ctrls1.bytesReadDRAM               9870080                       # Total number of bytes read from DRAM
system.mem_ctrls1.bytesReadWrQ                    256                       # Total number of bytes read from write queue
system.mem_ctrls1.bytesWritten                1047616                       # Total number of bytes written to DRAM
system.mem_ctrls1.bytesReadSys                9870336                       # Total read bytes from the system interface side
system.mem_ctrls1.bytesWrittenSys             1049664                       # Total written bytes from the system interface side
system.mem_ctrls1.servicedByWrQ                     4                       # Number of DRAM read bursts serviced by the write queue
system.mem_ctrls1.mergedWrBursts                    0                       # Number of DRAM write bursts merged with an existing one
system.mem_ctrls1.neitherReadNorWriteReqs            0                       # Number of requests that are neither read nor write
system.mem_ctrls1.perBankRdBursts::0             9935                       # Per bank write bursts
system.mem_ctrls1.perBankRdBursts::1             9622                       # Per bank write bursts
system.mem_ctrls1.perBankRdBursts::2             9478                       # Per bank write bursts
system.mem_ctrls1.perBankRdBursts::3             9529                       # Per bank write bursts
system.mem_ctrls1.perBankRdBursts::4             9468                       # Per bank write bursts
system.mem_ctrls1.perBankRdBursts::5             9222                       # Per bank write bursts
system.mem_ctrls1.perBankRdBursts::6             9374                       # Per bank write bursts
system.mem_ctrls1.perBankRdBursts::7             9589                       # Per bank write bursts
system.mem_ctrls1.perBankRdBursts::8             9531                       # Per bank write bursts
system.mem_ctrls1.perBankRdBursts::9             9344                       # Per bank write bursts
system.mem_ctrls1.perBankRdBursts::10            9979                       # Per bank write bursts
system.mem_ctrls1.perBankRdBursts::11            9780                       # Per bank write bursts
system.mem_ctrls1.perBankRdBursts::12            9854                       # Per bank write bursts
system.mem_ctrls1.perBankRdBursts::13            9879                       # Per bank write bursts
system.mem_ctrls1.perBankRdBursts::14            9942                       # Per bank write bursts
system.mem_ctrls1.perBankRdBursts::15            9694                       # Per bank write bursts
system.mem_ctrls1.perBankWrBursts::0             1052                       # Per bank write bursts
system.mem_ctrls1.perBankWrBursts::1              949                       # Per bank write bursts
system.mem_ctrls1.perBankWrBursts::2              971                       # Per bank write bursts
system.mem_ctrls1.perBankWrBursts::3              974                       # Per bank write bursts
system.mem_ctrls1.perBankWrBursts::4              923                       # Per bank write bursts
system.mem_ctrls1.perBankWrBursts::5              853                       # Per bank write bursts
system.mem_ctrls1.perBankWrBursts::6             1010                       # Per bank write bursts
system.mem_ctrls1.perBankWrBursts::7             1165                       # Per bank write bursts
system.mem_ctrls1.perBankWrBursts::8             1123                       # Per bank write bursts
system.mem_ctrls1.perBankWrBursts::9              955                       # Per bank write bursts
system.mem_ctrls1.perBankWrBursts::10            1035                       # Per bank write bursts
system.mem_ctrls1.perBankWrBursts::11            1021                       # Per bank write bursts
system.mem_ctrls1.perBankWrBursts::12            1124                       # Per bank write bursts
system.mem_ctrls1.perBankWrBursts::13            1109                       # Per bank write bursts
system.mem_ctrls1.perBankWrBursts::14            1091                       # Per bank write bursts
system.mem_ctrls1.perBankWrBursts::15            1014                       # Per bank write bursts
system.mem_ctrls1.numRdRetry                        0                       # Number of times read queue was full causing retry
system.mem_ctrls1.numWrRetry                        0                       # Number of times write queue was full causing retry
system.mem_ctrls1.totGap                  16034306000                       # Total gap between requests
system.mem_ctrls1.readPktSize::0                    0                       # Read request sizes (log2)
system.mem_ctrls1.readPktSize::1                    0                       # Read request sizes (log2)
system.mem_ctrls1.readPktSize::2                    0                       # Read request sizes (log2)
system.mem_ctrls1.readPktSize::3                    0                       # Read request sizes (log2)
system.mem_ctrls1.readPktSize::4                    0                       # Read request sizes (log2)
system.mem_ctrls1.readPktSize::5                    0                       # Read request sizes (log2)
system.mem_ctrls1.readPktSize::6               154224                       # Read request sizes (log2)
system.mem_ctrls1.writePktSize::0                   0                       # Write request sizes (log2)
system.mem_ctrls1.writePktSize::1                   0                       # Write request sizes (log2)
system.mem_ctrls1.writePktSize::2                   0                       # Write request sizes (log2)
system.mem_ctrls1.writePktSize::3                   0                       # Write request sizes (log2)
system.mem_ctrls1.writePktSize::4                   0                       # Write request sizes (log2)
system.mem_ctrls1.writePktSize::5                   0                       # Write request sizes (log2)
system.mem_ctrls1.writePktSize::6               16401                       # Write request sizes (log2)
system.mem_ctrls1.rdQLenPdf::0                  75927                       # What read queue length does an incoming req see
system.mem_ctrls1.rdQLenPdf::1                  40282                       # What read queue length does an incoming req see
system.mem_ctrls1.rdQLenPdf::2                  20687                       # What read queue length does an incoming req see
system.mem_ctrls1.rdQLenPdf::3                  10171                       # What read queue length does an incoming req see
system.mem_ctrls1.rdQLenPdf::4                   4342                       # What read queue length does an incoming req see
system.mem_ctrls1.rdQLenPdf::5                   1792                       # What read queue length does an incoming req see
system.mem_ctrls1.rdQLenPdf::6                    677                       # What read queue length does an incoming req see
system.mem_ctrls1.rdQLenPdf::7                    241                       # What read queue length does an incoming req see
system.mem_ctrls1.rdQLenPdf::8                     79                       # What read queue length does an incoming req see
system.mem_ctrls1.rdQLenPdf::9                     17                       # What read queue length does an incoming req see
system.mem_ctrls1.rdQLenPdf::10                     4                       # What read queue length does an incoming req see
system.mem_ctrls1.rdQLenPdf::11                     1                       # What read queue length does an incoming req see
system.mem_ctrls1.rdQLenPdf::12                     0                       # What read queue length does an incoming req see
system.mem_ctrls1.rdQLenPdf::13                     0                       # What read queue length does an incoming req see
system.mem_ctrls1.rdQLenPdf::14                     0                       # What read queue length does an incoming req see
system.mem_ctrls1.rdQLenPdf::15                     0                       # What read queue length does an incoming req see
system.mem_ctrls1.rdQLenPdf::16                     0                       # What read queue length does an incoming req see
system.mem_ctrls1.rdQLenPdf::17                     0                       # What read queue length does an incoming req see
system.mem_ctrls1.rdQLenPdf::18                     0                       # What read queue length does an incoming req see
system.mem_ctrls1.rdQLenPdf::19                     0                       # What read queue length does an incoming req see
system.mem_ctrls1.rdQLenPdf::20                     0                       # What read queue length does an incoming req see
system.mem_ctrls1.rdQLenPdf::21                     0                       # What read queue length does an incoming req see
system.mem_ctrls1.rdQLenPdf::22                     0                       # What read queue length does an incoming req see
system.mem_ctrls1.rdQLenPdf::23                     0                       # What read queue length does an incoming req see
system.mem_ctrls1.rdQLenPdf::24                     0                       # What read queue length does an incoming req see
system.mem_ctrls1.rdQLenPdf::25                     0                       # What read queue length does an incoming req see
system.mem_ctrls1.rdQLenPdf::26                     0                       # What read queue length does an incoming req see
system.mem_ctrls1.rdQLenPdf::27                     0                       # What read queue length does an incoming req see
system.mem_ctrls1.rdQLenPdf::28                     0                       # What read queue length does an incoming req see
system.mem_ctrls1.rdQLenPdf::29                     0                       # What read queue length does an incoming req see
system.mem_ctrls1.rdQLenPdf::30                     0                       # What read queue length does an incoming req see
system.mem_ctrls1.rdQLenPdf::31                     0                       # What read queue length does an incoming req see
system.mem_ctrls1.wrQLenPdf::0                      1                       # What write queue length does an incoming req see
system.mem_ctrls1.wrQLenPdf::1                      1                       # What write queue length does an incoming req see
system.mem_ctrls1.wrQLenPdf::2                      1                       # What write queue length does an incoming req see
system.mem_ctrls1.wrQLenPdf::3                      1                       # What write queue length does an incoming req see
system.mem_ctrls1.wrQLenPdf::4                      1                       # What write queue length does an incoming req see
system.mem_ctrls1.wrQLenPdf::5                      1                       # What write queue length does an incoming req see
system.mem_ctrls1.wrQLenPdf::6                      1                       # What write queue length does an incoming req see
system.mem_ctrls1.wrQLenPdf::7                      1                       # What write queue length does an incoming req see
system.mem_ctrls1.wrQLenPdf::8                      1                       # What write queue length does an incoming req see
system.mem_ctrls1.wrQLenPdf::9                      1                       # What write queue length does an incoming req see
system.mem_ctrls1.wrQLenPdf::10                     1                       # What write queue length does an incoming req see
system.mem_ctrls1.wrQLenPdf::11                     1                       # What write queue length does an incoming req see
system.mem_ctrls1.wrQLenPdf::12                     1                       # What write queue length does an incoming req see
system.mem_ctrls1.wrQLenPdf::13                     1                       # What write queue length does an incoming req see
system.mem_ctrls1.wrQLenPdf::14                     1                       # What write queue length does an incoming req see
system.mem_ctrls1.wrQLenPdf::15                   242                       # What write queue length does an incoming req see
system.mem_ctrls1.wrQLenPdf::16                   284                       # What write queue length does an incoming req see
system.mem_ctrls1.wrQLenPdf::17                   691                       # What write queue length does an incoming req see
system.mem_ctrls1.wrQLenPdf::18                   963                       # What write queue length does an incoming req see
system.mem_ctrls1.wrQLenPdf::19                  1029                       # What write queue length does an incoming req see
system.mem_ctrls1.wrQLenPdf::20                  1021                       # What write queue length does an incoming req see
system.mem_ctrls1.wrQLenPdf::21                  1013                       # What write queue length does an incoming req see
system.mem_ctrls1.wrQLenPdf::22                  1010                       # What write queue length does an incoming req see
system.mem_ctrls1.wrQLenPdf::23                  1023                       # What write queue length does an incoming req see
system.mem_ctrls1.wrQLenPdf::24                  1009                       # What write queue length does an incoming req see
system.mem_ctrls1.wrQLenPdf::25                  1007                       # What write queue length does an incoming req see
system.mem_ctrls1.wrQLenPdf::26                  1004                       # What write queue length does an incoming req see
system.mem_ctrls1.wrQLenPdf::27                  1016                       # What write queue length does an incoming req see
system.mem_ctrls1.wrQLenPdf::28                  1009                       # What write queue length does an incoming req see
system.mem_ctrls1.wrQLenPdf::29                  1012                       # What write queue length does an incoming req see
system.mem_ctrls1.wrQLenPdf::30                  1010                       # What write queue length does an incoming req see
system.mem_ctrls1.wrQLenPdf::31                  1009                       # What write queue length does an incoming req see
system.mem_ctrls1.wrQLenPdf::32                  1007                       # What write queue length does an incoming req see
system.mem_ctrls1.wrQLenPdf::33                    22                       # What write queue length does an incoming req see
system.mem_ctrls1.wrQLenPdf::34                     4                       # What write queue length does an incoming req see
system.mem_ctrls1.wrQLenPdf::35                     1                       # What write queue length does an incoming req see
system.mem_ctrls1.wrQLenPdf::36                     0                       # What write queue length does an incoming req see
system.mem_ctrls1.wrQLenPdf::37                     0                       # What write queue length does an incoming req see
system.mem_ctrls1.wrQLenPdf::38                     0                       # What write queue length does an incoming req see
system.mem_ctrls1.wrQLenPdf::39                     0                       # What write queue length does an incoming req see
system.mem_ctrls1.wrQLenPdf::40                     0                       # What write queue length does an incoming req see
system.mem_ctrls1.wrQLenPdf::41                     0                       # What write queue length does an incoming req see
system.mem_ctrls1.wrQLenPdf::42                     0                       # What write queue length does an incoming req see
system.mem_ctrls1.wrQLenPdf::43                     0                       # What write queue length does an incoming req see
system.mem_ctrls1.wrQLenPdf::44                     0                       # What write queue length does an incoming req see
system.mem_ctrls1.wrQLenPdf::45                     0                       # What write queue length does an incoming req see
system.mem_ctrls1.wrQLenPdf::46                     0                       # What write queue length does an incoming req see
system.mem_ctrls1.wrQLenPdf::47                     0                       # What write queue length does an incoming req see
system.mem_ctrls1.wrQLenPdf::48                     0                       # What write queue length does an incoming req see
system.mem_ctrls1.wrQLenPdf::49                     0                       # What write queue length does an incoming req see
system.mem_ctrls1.wrQLenPdf::50                     0                       # What write queue length does an incoming req see
system.mem_ctrls1.wrQLenPdf::51                     0                       # What write queue length does an incoming req see
system.mem_ctrls1.wrQLenPdf::52                     0                       # What write queue length does an incoming req see
system.mem_ctrls1.wrQLenPdf::53                     0                       # What write queue length does an incoming req see
system.mem_ctrls1.wrQLenPdf::54                     0                       # What write queue length does an incoming req see
system.mem_ctrls1.wrQLenPdf::55                     0                       # What write queue length does an incoming req see
system.mem_ctrls1.wrQLenPdf::56                     0                       # What write queue length does an incoming req see
system.mem_ctrls1.wrQLenPdf::57                     0                       # What write queue length does an incoming req see
system.mem_ctrls1.wrQLenPdf::58                     0                       # What write queue length does an incoming req see
system.mem_ctrls1.wrQLenPdf::59                     0                       # What write queue length does an incoming req see
system.mem_ctrls1.wrQLenPdf::60                     0                       # What write queue length does an incoming req see
system.mem_ctrls1.wrQLenPdf::61                     0                       # What write queue length does an incoming req see
system.mem_ctrls1.wrQLenPdf::62                     0                       # What write queue length does an incoming req see
system.mem_ctrls1.wrQLenPdf::63                     0                       # What write queue length does an incoming req see
system.mem_ctrls1.bytesPerActivate::samples        94044                       # Bytes accessed per row activation
system.mem_ctrls1.bytesPerActivate::mean   116.087278                       # Bytes accessed per row activation
system.mem_ctrls1.bytesPerActivate::gmean    89.413855                       # Bytes accessed per row activation
system.mem_ctrls1.bytesPerActivate::stdev   124.624363                       # Bytes accessed per row activation
system.mem_ctrls1.bytesPerActivate::0-127        66393     70.60%     70.60% # Bytes accessed per row activation
system.mem_ctrls1.bytesPerActivate::128-255        17730     18.85%     89.45% # Bytes accessed per row activation
system.mem_ctrls1.bytesPerActivate::256-383         4150      4.41%     93.86% # Bytes accessed per row activation
system.mem_ctrls1.bytesPerActivate::384-511         2448      2.60%     96.47% # Bytes accessed per row activation
system.mem_ctrls1.bytesPerActivate::512-639         1523      1.62%     98.09% # Bytes accessed per row activation
system.mem_ctrls1.bytesPerActivate::640-767         1296      1.38%     99.46% # Bytes accessed per row activation
system.mem_ctrls1.bytesPerActivate::768-895          177      0.19%     99.65% # Bytes accessed per row activation
system.mem_ctrls1.bytesPerActivate::896-1023          172      0.18%     99.84% # Bytes accessed per row activation
system.mem_ctrls1.bytesPerActivate::1024-1151          155      0.16%    100.00% # Bytes accessed per row activation
system.mem_ctrls1.bytesPerActivate::total        94044                       # Bytes accessed per row activation
system.mem_ctrls1.rdPerTurnAround::samples          989                       # Reads before turning the bus around for writes
system.mem_ctrls1.rdPerTurnAround::mean    155.907988                       # Reads before turning the bus around for writes
system.mem_ctrls1.rdPerTurnAround::gmean    59.874122                       # Reads before turning the bus around for writes
system.mem_ctrls1.rdPerTurnAround::stdev  2043.939961                       # Reads before turning the bus around for writes
system.mem_ctrls1.rdPerTurnAround::0-2047          987     99.80%     99.80% # Reads before turning the bus around for writes
system.mem_ctrls1.rdPerTurnAround::2048-4095            1      0.10%     99.90% # Reads before turning the bus around for writes
system.mem_ctrls1.rdPerTurnAround::63488-65535            1      0.10%    100.00% # Reads before turning the bus around for writes
system.mem_ctrls1.rdPerTurnAround::total          989                       # Reads before turning the bus around for writes
system.mem_ctrls1.wrPerTurnAround::samples          989                       # Writes before turning the bus around for reads
system.mem_ctrls1.wrPerTurnAround::mean     16.551062                       # Writes before turning the bus around for reads
system.mem_ctrls1.wrPerTurnAround::gmean    16.528616                       # Writes before turning the bus around for reads
system.mem_ctrls1.wrPerTurnAround::stdev     0.877445                       # Writes before turning the bus around for reads
system.mem_ctrls1.wrPerTurnAround::16             700     70.78%     70.78% # Writes before turning the bus around for reads
system.mem_ctrls1.wrPerTurnAround::17              35      3.54%     74.32% # Writes before turning the bus around for reads
system.mem_ctrls1.wrPerTurnAround::18             252     25.48%     99.80% # Writes before turning the bus around for reads
system.mem_ctrls1.wrPerTurnAround::19               2      0.20%    100.00% # Writes before turning the bus around for reads
system.mem_ctrls1.wrPerTurnAround::total          989                       # Writes before turning the bus around for reads
system.mem_ctrls1.totQLat                  4474969500                       # Total ticks spent queuing
system.mem_ctrls1.totMemAccLat             7366594500                       # Total ticks spent from burst creation until serviced by the DRAM
system.mem_ctrls1.totBusLat                 771100000                       # Total ticks spent in databus transfers
system.mem_ctrls1.avgQLat                    29016.79                       # Average queueing delay per DRAM burst
system.mem_ctrls1.avgBusLat                   5000.00                       # Average bus latency per DRAM burst
system.mem_ctrls1.avgMemAccLat               47766.79                       # Average memory access latency per DRAM burst
system.mem_ctrls1.avgRdBW                      615.54                       # Average DRAM read bandwidth in MiByte/s
system.mem_ctrls1.avgWrBW                       65.33                       # Average achieved write bandwidth in MiByte/s
system.mem_ctrls1.avgRdBWSys                   615.55                       # Average system read bandwidth in MiByte/s
system.mem_ctrls1.avgWrBWSys                    65.46                       # Average system write bandwidth in MiByte/s
system.mem_ctrls1.peakBW                     12800.00                       # Theoretical peak bandwidth in MiByte/s
system.mem_ctrls1.busUtil                        5.32                       # Data bus utilization in percentage
system.mem_ctrls1.busUtilRead                    4.81                       # Data bus utilization in percentage for reads
system.mem_ctrls1.busUtilWrite                   0.51                       # Data bus utilization in percentage for writes
system.mem_ctrls1.avgRdQLen                      1.55                       # Average read queue length when enqueuing
system.mem_ctrls1.avgWrQLen                     13.15                       # Average write queue length when enqueuing
system.mem_ctrls1.readRowHits                   73130                       # Number of row buffer hits during reads
system.mem_ctrls1.writeRowHits                   3410                       # Number of row buffer hits during writes
system.mem_ctrls1.readRowHitRate                47.42                       # Row buffer hit rate for reads
system.mem_ctrls1.writeRowHitRate               20.79                       # Row buffer hit rate for writes
system.mem_ctrls1.avgGap                     93973.95                       # Average gap between requests
system.mem_ctrls1.pageHitRate                   44.86                       # Row buffer hit rate, read and write combined
system.mem_ctrls1_0.actEnergy               329846580                       # Energy for activate commands per rank (pJ)
system.mem_ctrls1_0.preEnergy               175302435                       # Energy for precharge commands per rank (pJ)
system.mem_ctrls1_0.readEnergy              544189380                       # Energy for read commands per rank (pJ)
system.mem_ctrls1_0.writeEnergy              41222340                       # Energy for write commands per rank (pJ)
system.mem_ctrls1_0.refreshEnergy        1227436080.000000                       # Energy for refresh commands per rank (pJ)
system.mem_ctrls1_0.actBackEnergy          1434483660                       # Energy for active background per rank (pJ)
system.mem_ctrls1_0.preBackEnergy            39518880                       # Energy for precharge background per rank (pJ)
system.mem_ctrls1_0.actPowerDownEnergy     5035752210                       # Energy for active power-down per rank (pJ)
system.mem_ctrls1_0.prePowerDownEnergy      345654720                       # Energy for precharge power-down per rank (pJ)
system.mem_ctrls1_0.selfRefreshEnergy       229951515                       # Energy for self refresh per rank (pJ)
system.mem_ctrls1_0.totalEnergy            9403551480                       # Total energy per rank (pJ)
system.mem_ctrls1_0.averagePower           586.443292                       # Core power per rank (mW)
system.mem_ctrls1_0.totalIdleTime         12785169000                       # Total Idle time Per DRAM Rank
system.mem_ctrls1_0.memoryStateTime::IDLE     31130250                       # Time in different power states
system.mem_ctrls1_0.memoryStateTime::REF    519568000                       # Time in different power states
system.mem_ctrls1_0.memoryStateTime::SREF    842285500                       # Time in different power states
system.mem_ctrls1_0.memoryStateTime::PRE_PDN    899946250                       # Time in different power states
system.mem_ctrls1_0.memoryStateTime::ACT   2698880250                       # Time in different power states
system.mem_ctrls1_0.memoryStateTime::ACT_PDN  11043075750                       # Time in different power states
system.mem_ctrls1_1.actEnergy               341663280                       # Energy for activate commands per rank (pJ)
system.mem_ctrls1_1.preEnergy               181594545                       # Energy for precharge commands per rank (pJ)
system.mem_ctrls1_1.readEnergy              556941420                       # Energy for read commands per rank (pJ)
system.mem_ctrls1_1.writeEnergy              44223840                       # Energy for write commands per rank (pJ)
system.mem_ctrls1_1.refreshEnergy        1223748240.000000                       # Energy for refresh commands per rank (pJ)
system.mem_ctrls1_1.actBackEnergy          1473756090                       # Energy for active background per rank (pJ)
system.mem_ctrls1_1.preBackEnergy            35259840                       # Energy for precharge background per rank (pJ)
system.mem_ctrls1_1.actPowerDownEnergy     5038173000                       # Energy for active power-down per rank (pJ)
system.mem_ctrls1_1.prePowerDownEnergy      319937280                       # Energy for precharge power-down per rank (pJ)
system.mem_ctrls1_1.selfRefreshEnergy       221772855                       # Energy for self refresh per rank (pJ)
system.mem_ctrls1_1.totalEnergy            9437302830                       # Total energy per rank (pJ)
system.mem_ctrls1_1.averagePower           588.548162                       # Core power per rank (mW)
system.mem_ctrls1_1.totalIdleTime         12711071500                       # Total Idle time Per DRAM Rank
system.mem_ctrls1_1.memoryStateTime::IDLE     21753500                       # Time in different power states
system.mem_ctrls1_1.memoryStateTime::REF    517984000                       # Time in different power states
system.mem_ctrls1_1.memoryStateTime::SREF    828828500                       # Time in different power states
system.mem_ctrls1_1.memoryStateTime::PRE_PDN    832979250                       # Time in different power states
system.mem_ctrls1_1.memoryStateTime::ACT   2783613250                       # Time in different power states
system.mem_ctrls1_1.memoryStateTime::ACT_PDN  11049727500                       # Time in different power states
system.mem_ctrls2.pwrStateResidencyTicks::UNDEFINED  16034886000                       # Cumulative time (in ticks) in various power states
system.mem_ctrls2.bytes_read::ruby.dir_cntrl2      9887104                       # Number of bytes read from this memory
system.mem_ctrls2.bytes_read::total           9887104                       # Number of bytes read from this memory
system.mem_ctrls2.bytes_written::ruby.dir_cntrl2      1054528                       # Number of bytes written to this memory
system.mem_ctrls2.bytes_written::total        1054528                       # Number of bytes written to this memory
system.mem_ctrls2.num_reads::ruby.dir_cntrl2       154486                       # Number of read requests responded to by this memory
system.mem_ctrls2.num_reads::total             154486                       # Number of read requests responded to by this memory
system.mem_ctrls2.num_writes::ruby.dir_cntrl2        16477                       # Number of write requests responded to by this memory
system.mem_ctrls2.num_writes::total             16477                       # Number of write requests responded to by this memory
system.mem_ctrls2.bw_read::ruby.dir_cntrl2    616599582                       # Total read bandwidth from this memory (bytes/s)
system.mem_ctrls2.bw_read::total            616599582                       # Total read bandwidth from this memory (bytes/s)
system.mem_ctrls2.bw_write::ruby.dir_cntrl2     65764608                       # Write bandwidth from this memory (bytes/s)
system.mem_ctrls2.bw_write::total            65764608                       # Write bandwidth from this memory (bytes/s)
system.mem_ctrls2.bw_total::ruby.dir_cntrl2    682364190                       # Total bandwidth to/from this memory (bytes/s)
system.mem_ctrls2.bw_total::total           682364190                       # Total bandwidth to/from this memory (bytes/s)
system.mem_ctrls2.readReqs                     154486                       # Number of read requests accepted
system.mem_ctrls2.avgNetLat                      0.00                       # Average network latency to DRAM controller
system.mem_ctrls2.writeReqs                     16477                       # Number of write requests accepted
system.mem_ctrls2.readBursts                   154486                       # Number of DRAM read bursts, including those serviced by the write queue
system.mem_ctrls2.writeBursts                   16477                       # Number of DRAM write bursts, including those merged in the write queue
system.mem_ctrls2.bytesReadDRAM               9886720                       # Total number of bytes read from DRAM
system.mem_ctrls2.bytesReadWrQ                    384                       # Total number of bytes read from write queue
system.mem_ctrls2.bytesWritten                1053504                       # Total number of bytes written to DRAM
system.mem_ctrls2.bytesReadSys                9887104                       # Total read bytes from the system interface side
system.mem_ctrls2.bytesWrittenSys             1054528                       # Total written bytes from the system interface side
system.mem_ctrls2.servicedByWrQ                     6                       # Number of DRAM read bursts serviced by the write queue
system.mem_ctrls2.mergedWrBursts                    0                       # Number of DRAM write bursts merged with an existing one
system.mem_ctrls2.neitherReadNorWriteReqs            0                       # Number of requests that are neither read nor write
system.mem_ctrls2.perBankRdBursts::0             9902                       # Per bank write bursts
system.mem_ctrls2.perBankRdBursts::1             9663                       # Per bank write bursts
system.mem_ctrls2.perBankRdBursts::2             9524                       # Per bank write bursts
system.mem_ctrls2.perBankRdBursts::3             9505                       # Per bank write bursts
system.mem_ctrls2.perBankRdBursts::4             9499                       # Per bank write bursts
system.mem_ctrls2.perBankRdBursts::5             9223                       # Per bank write bursts
system.mem_ctrls2.perBankRdBursts::6             9359                       # Per bank write bursts
system.mem_ctrls2.perBankRdBursts::7             9593                       # Per bank write bursts
system.mem_ctrls2.perBankRdBursts::8             9517                       # Per bank write bursts
system.mem_ctrls2.perBankRdBursts::9             9344                       # Per bank write bursts
system.mem_ctrls2.perBankRdBursts::10            9974                       # Per bank write bursts
system.mem_ctrls2.perBankRdBursts::11            9904                       # Per bank write bursts
system.mem_ctrls2.perBankRdBursts::12            9845                       # Per bank write bursts
system.mem_ctrls2.perBankRdBursts::13            9962                       # Per bank write bursts
system.mem_ctrls2.perBankRdBursts::14            9956                       # Per bank write bursts
system.mem_ctrls2.perBankRdBursts::15            9710                       # Per bank write bursts
system.mem_ctrls2.perBankWrBursts::0             1030                       # Per bank write bursts
system.mem_ctrls2.perBankWrBursts::1              937                       # Per bank write bursts
system.mem_ctrls2.perBankWrBursts::2              975                       # Per bank write bursts
system.mem_ctrls2.perBankWrBursts::3              965                       # Per bank write bursts
system.mem_ctrls2.perBankWrBursts::4              943                       # Per bank write bursts
system.mem_ctrls2.perBankWrBursts::5              866                       # Per bank write bursts
system.mem_ctrls2.perBankWrBursts::6             1003                       # Per bank write bursts
system.mem_ctrls2.perBankWrBursts::7             1169                       # Per bank write bursts
system.mem_ctrls2.perBankWrBursts::8             1138                       # Per bank write bursts
system.mem_ctrls2.perBankWrBursts::9              921                       # Per bank write bursts
system.mem_ctrls2.perBankWrBursts::10            1030                       # Per bank write bursts
system.mem_ctrls2.perBankWrBursts::11            1076                       # Per bank write bursts
system.mem_ctrls2.perBankWrBursts::12            1130                       # Per bank write bursts
system.mem_ctrls2.perBankWrBursts::13            1143                       # Per bank write bursts
system.mem_ctrls2.perBankWrBursts::14            1112                       # Per bank write bursts
system.mem_ctrls2.perBankWrBursts::15            1023                       # Per bank write bursts
system.mem_ctrls2.numRdRetry                        0                       # Number of times read queue was full causing retry
system.mem_ctrls2.numWrRetry                        0                       # Number of times write queue was full causing retry
system.mem_ctrls2.totGap                  16033950500                       # Total gap between requests
system.mem_ctrls2.readPktSize::0                    0                       # Read request sizes (log2)
system.mem_ctrls2.readPktSize::1                    0                       # Read request sizes (log2)
system.mem_ctrls2.readPktSize::2                    0                       # Read request sizes (log2)
system.mem_ctrls2.readPktSize::3                    0                       # Read request sizes (log2)
system.mem_ctrls2.readPktSize::4                    0                       # Read request sizes (log2)
system.mem_ctrls2.readPktSize::5                    0                       # Read request sizes (log2)
system.mem_ctrls2.readPktSize::6               154486                       # Read request sizes (log2)
system.mem_ctrls2.writePktSize::0                   0                       # Write request sizes (log2)
system.mem_ctrls2.writePktSize::1                   0                       # Write request sizes (log2)
system.mem_ctrls2.writePktSize::2                   0                       # Write request sizes (log2)
system.mem_ctrls2.writePktSize::3                   0                       # Write request sizes (log2)
system.mem_ctrls2.writePktSize::4                   0                       # Write request sizes (log2)
system.mem_ctrls2.writePktSize::5                   0                       # Write request sizes (log2)
system.mem_ctrls2.writePktSize::6               16477                       # Write request sizes (log2)
system.mem_ctrls2.rdQLenPdf::0                  75827                       # What read queue length does an incoming req see
system.mem_ctrls2.rdQLenPdf::1                  40381                       # What read queue length does an incoming req see
system.mem_ctrls2.rdQLenPdf::2                  21000                       # What read queue length does an incoming req see
system.mem_ctrls2.rdQLenPdf::3                  10142                       # What read queue length does an incoming req see
system.mem_ctrls2.rdQLenPdf::4                   4434                       # What read queue length does an incoming req see
system.mem_ctrls2.rdQLenPdf::5                   1782                       # What read queue length does an incoming req see
system.mem_ctrls2.rdQLenPdf::6                    637                       # What read queue length does an incoming req see
system.mem_ctrls2.rdQLenPdf::7                    200                       # What read queue length does an incoming req see
system.mem_ctrls2.rdQLenPdf::8                     62                       # What read queue length does an incoming req see
system.mem_ctrls2.rdQLenPdf::9                     12                       # What read queue length does an incoming req see
system.mem_ctrls2.rdQLenPdf::10                     3                       # What read queue length does an incoming req see
system.mem_ctrls2.rdQLenPdf::11                     0                       # What read queue length does an incoming req see
system.mem_ctrls2.rdQLenPdf::12                     0                       # What read queue length does an incoming req see
system.mem_ctrls2.rdQLenPdf::13                     0                       # What read queue length does an incoming req see
system.mem_ctrls2.rdQLenPdf::14                     0                       # What read queue length does an incoming req see
system.mem_ctrls2.rdQLenPdf::15                     0                       # What read queue length does an incoming req see
system.mem_ctrls2.rdQLenPdf::16                     0                       # What read queue length does an incoming req see
system.mem_ctrls2.rdQLenPdf::17                     0                       # What read queue length does an incoming req see
system.mem_ctrls2.rdQLenPdf::18                     0                       # What read queue length does an incoming req see
system.mem_ctrls2.rdQLenPdf::19                     0                       # What read queue length does an incoming req see
system.mem_ctrls2.rdQLenPdf::20                     0                       # What read queue length does an incoming req see
system.mem_ctrls2.rdQLenPdf::21                     0                       # What read queue length does an incoming req see
system.mem_ctrls2.rdQLenPdf::22                     0                       # What read queue length does an incoming req see
system.mem_ctrls2.rdQLenPdf::23                     0                       # What read queue length does an incoming req see
system.mem_ctrls2.rdQLenPdf::24                     0                       # What read queue length does an incoming req see
system.mem_ctrls2.rdQLenPdf::25                     0                       # What read queue length does an incoming req see
system.mem_ctrls2.rdQLenPdf::26                     0                       # What read queue length does an incoming req see
system.mem_ctrls2.rdQLenPdf::27                     0                       # What read queue length does an incoming req see
system.mem_ctrls2.rdQLenPdf::28                     0                       # What read queue length does an incoming req see
system.mem_ctrls2.rdQLenPdf::29                     0                       # What read queue length does an incoming req see
system.mem_ctrls2.rdQLenPdf::30                     0                       # What read queue length does an incoming req see
system.mem_ctrls2.rdQLenPdf::31                     0                       # What read queue length does an incoming req see
system.mem_ctrls2.wrQLenPdf::0                      1                       # What write queue length does an incoming req see
system.mem_ctrls2.wrQLenPdf::1                      1                       # What write queue length does an incoming req see
system.mem_ctrls2.wrQLenPdf::2                      1                       # What write queue length does an incoming req see
system.mem_ctrls2.wrQLenPdf::3                      1                       # What write queue length does an incoming req see
system.mem_ctrls2.wrQLenPdf::4                      1                       # What write queue length does an incoming req see
system.mem_ctrls2.wrQLenPdf::5                      1                       # What write queue length does an incoming req see
system.mem_ctrls2.wrQLenPdf::6                      1                       # What write queue length does an incoming req see
system.mem_ctrls2.wrQLenPdf::7                      1                       # What write queue length does an incoming req see
system.mem_ctrls2.wrQLenPdf::8                      1                       # What write queue length does an incoming req see
system.mem_ctrls2.wrQLenPdf::9                      1                       # What write queue length does an incoming req see
system.mem_ctrls2.wrQLenPdf::10                     1                       # What write queue length does an incoming req see
system.mem_ctrls2.wrQLenPdf::11                     1                       # What write queue length does an incoming req see
system.mem_ctrls2.wrQLenPdf::12                     1                       # What write queue length does an incoming req see
system.mem_ctrls2.wrQLenPdf::13                     1                       # What write queue length does an incoming req see
system.mem_ctrls2.wrQLenPdf::14                     1                       # What write queue length does an incoming req see
system.mem_ctrls2.wrQLenPdf::15                   237                       # What write queue length does an incoming req see
system.mem_ctrls2.wrQLenPdf::16                   286                       # What write queue length does an incoming req see
system.mem_ctrls2.wrQLenPdf::17                   690                       # What write queue length does an incoming req see
system.mem_ctrls2.wrQLenPdf::18                   950                       # What write queue length does an incoming req see
system.mem_ctrls2.wrQLenPdf::19                  1024                       # What write queue length does an incoming req see
system.mem_ctrls2.wrQLenPdf::20                  1035                       # What write queue length does an incoming req see
system.mem_ctrls2.wrQLenPdf::21                  1034                       # What write queue length does an incoming req see
system.mem_ctrls2.wrQLenPdf::22                  1023                       # What write queue length does an incoming req see
[...]
system.ruby.L2Cache_Controller.M.L1_GET_INSTR |          14     25.00%     25.00% |           0      0.00%     25.00% |           0      0.00%     25.00% |           0      0.00%     25.00% |           0      0.00%     25.00% |           0      0.00%     25.00% |           0      0.00%     25.00% |           0      0.00%     25.00% |          14     25.00%     50.00% |          14     25.00%     75.00% |           0      0.00%     75.00% |           0      0.00%     75.00% |           0      0.00%     75.00% |           0      0.00%     75.00% |          14     25.00%    100.00% |           0      0.00%    100.00%
system.ruby.L2Cache_Controller.M.L1_GET_INSTR::total           56                      
system.ruby.L2Cache_Controller.M.L1_GETS |       11222      6.21%      6.21% |       11415      6.32%     12.53% |       11107      6.15%     18.68% |       11416      6.32%     25.00% |       11086      6.14%     31.13% |       10921      6.05%     37.18% |       10985      6.08%     43.26% |       11262      6.23%     49.49% |       11231      6.22%     55.71% |       11051      6.12%     61.83% |       11275      6.24%     68.07% |       11883      6.58%     74.65% |       11665      6.46%     81.10% |       11819      6.54%     87.65% |       11567      6.40%     94.05% |       10752      5.95%    100.00%
system.ruby.L2Cache_Controller.M.L1_GETS::total       180657                      
system.ruby.L2Cache_Controller.M.L1_GETX |        1213      6.26%      6.26% |        1288      6.64%     12.90% |        1250      6.45%     19.35% |        1169      6.03%     25.38% |        1254      6.47%     31.85% |        1158      5.97%     37.82% |        1132      5.84%     43.66% |        1295      6.68%     50.34% |        1177      6.07%     56.41% |        1246      6.43%     62.84% |        1220      6.29%     69.13% |        1186      6.12%     75.25% |        1189      6.13%     81.38% |        1101      5.68%     87.06% |        1226      6.32%     93.38% |        1283      6.62%    100.00%
system.ruby.L2Cache_Controller.M.L1_GETX::total        19387                      
system.ruby.L2Cache_Controller.M.L2_Replacement |        4114      6.31%      6.31% |        4082      6.26%     12.56% |        4052      6.21%     18.77% |        4138      6.34%     25.12% |        4023      6.17%     31.28% |        4032      6.18%     37.46% |        4072      6.24%     43.70% |        4033      6.18%     49.88% |        4131      6.33%     56.22% |        3988      6.11%     62.33% |        4073      6.24%     68.57% |        4057      6.22%     74.79% |        4088      6.27%     81.06% |        4179      6.41%     87.46% |        4139      6.34%     93.80% |        4042      6.20%    100.00%
system.ruby.L2Cache_Controller.M.L2_Replacement::total        65243                      
system.ruby.L2Cache_Controller.M.L2_Replacement_clean |        2877      6.35%      6.35% |        2785      6.15%     12.49% |        2688      5.93%     18.43% |        2815      6.21%     24.64% |        2679      5.91%     30.55% |        2821      6.23%     36.78% |        2835      6.26%     43.03% |        2892      6.38%     49.41% |        2915      6.43%     55.85% |        2757      6.08%     61.93% |        2833      6.25%     68.18% |        2862      6.32%     74.50% |        2910      6.42%     80.92% |        2872      6.34%     87.26% |        2878      6.35%     93.61% |        2897      6.39%    100.00%
system.ruby.L2Cache_Controller.M.L2_Replacement_clean::total        45316                      
system.ruby.L2Cache_Controller.MT.L1_GETS |          70      3.95%      3.95% |          70      3.95%      7.91% |          98      5.54%     13.45% |          98      5.54%     18.98% |          98      5.54%     24.52% |         140      7.91%     32.43% |         140      7.91%     40.34% |         140      7.91%     48.25% |         140      7.91%     56.16% |         140      7.91%     64.07% |         138      7.80%     71.86% |         134      7.57%     79.44% |         112      6.33%     85.76% |         112      6.33%     92.09% |          70      3.95%     96.05% |          70      3.95%    100.00%
system.ruby.L2Cache_Controller.MT.L1_GETS::total         1770                      
system.ruby.L2Cache_Controller.MT.L1_GETX |           0      0.00%      0.00% |           0      0.00%      0.00% |           0      0.00%      0.00% |           0      0.00%      0.00% |           0      0.00%      0.00% |           0      0.00%      0.00% |           0      0.00%      0.00% |           0      0.00%      0.00% |           0      0.00%      0.00% |           0      0.00%      0.00% |           1     25.00%     25.00% |           3     75.00%    100.00% |           0      0.00%    100.00% |           0      0.00%    100.00% |           0      0.00%    100.00% |           0      0.00%    100.00%
system.ruby.L2Cache_Controller.MT.L1_GETX::total            4                      
system.ruby.L2Cache_Controller.MT.L1_PUTX |       48843      6.25%      6.25% |       48943      6.26%     12.51% |       48379      6.19%     18.70% |       48965      6.26%     24.96% |       48420      6.19%     31.16% |       48385      6.19%     37.35% |       48514      6.21%     43.56% |       48937      6.26%     49.82% |       48939      6.26%     56.08% |       48495      6.20%     62.28% |       48865      6.25%     68.53% |       49475      6.33%     74.86% |       49411      6.32%     81.18% |       49478      6.33%     87.51% |       49183      6.29%     93.81% |       48408      6.19%    100.00%
system.ruby.L2Cache_Controller.MT.L1_PUTX::total       781640                      
system.ruby.L2Cache_Controller.MT.L2_Replacement |           5      4.55%      4.55% |           7      6.36%     10.91% |          13     11.82%     22.73% |           7      6.36%     29.09% |           7      6.36%     35.45% |           5      4.55%     40.00% |           7      6.36%     46.36% |          12     10.91%     57.27% |           8      7.27%     64.55% |           4      3.64%     68.18% |           7      6.36%     74.55% |           9      8.18%     82.73% |           6      5.45%     88.18% |           3      2.73%     90.91% |           6      5.45%     96.36% |           4      3.64%    100.00%
system.ruby.L2Cache_Controller.MT.L2_Replacement::total          110                      
system.ruby.L2Cache_Controller.MT.L2_Replacement_clean |          29      7.11%      7.11% |          25      6.13%     13.24% |          25      6.13%     19.36% |          20      4.90%     24.26% |          29      7.11%     31.37% |          23      5.64%     37.01% |          28      6.86%     43.87% |          22      5.39%     49.26% |          16      3.92%     53.19% |          29      7.11%     60.29% |          24      5.88%     66.18% |          25      6.13%     72.30% |          31      7.60%     79.90% |          27      6.62%     86.52% |          29      7.11%     93.63% |          26      6.37%    100.00%
system.ruby.L2Cache_Controller.MT.L2_Replacement_clean::total          408                      
system.ruby.L2Cache_Controller.M_I.L1_GET_INSTR |           0      0.00%      0.00% |           0      0.00%      0.00% |           1    100.00%    100.00% |           0      0.00%    100.00% |           0      0.00%    100.00% |           0      0.00%    100.00% |           0      0.00%    100.00% |           0      0.00%    100.00% |           0      0.00%    100.00% |           0      0.00%    100.00% |           0      0.00%    100.00% |           0      0.00%    100.00% |           0      0.00%    100.00% |           0      0.00%    100.00% |           0      0.00%    100.00% |           0      0.00%    100.00%
system.ruby.L2Cache_Controller.M_I.L1_GET_INSTR::total            1                      
system.ruby.L2Cache_Controller.M_I.Mem_Ack |        7599      6.33%      6.33% |        7487      6.24%     12.56% |        7383      6.15%     18.71% |        7502      6.25%     24.96% |        7302      6.08%     31.04% |        7488      6.24%     37.28% |        7519      6.26%     43.54% |        7503      6.25%     49.79% |        7694      6.41%     56.20% |        7255      6.04%     62.24% |        7434      6.19%     68.43% |        7508      6.25%     74.68% |        7590      6.32%     81.01% |        7627      6.35%     87.36% |        7676      6.39%     93.75% |        7503      6.25%    100.00%
system.ruby.L2Cache_Controller.M_I.Mem_Ack::total       120070                      
system.ruby.L2Cache_Controller.MT_I.WB_Data |           0      0.00%      0.00% |           4      8.51%      8.51% |           8     17.02%     25.53% |           2      4.26%     29.79% |           4      8.51%     38.30% |           2      4.26%     42.55% |           4      8.51%     51.06% |           4      8.51%     59.57% |           3      6.38%     65.96% |           2      4.26%     70.21% |           2      4.26%     74.47% |           4      8.51%     82.98% |           3      6.38%     89.36% |           0      0.00%     89.36% |           2      4.26%     93.62% |           3      6.38%    100.00%
system.ruby.L2Cache_Controller.MT_I.WB_Data::total           47                      
system.ruby.L2Cache_Controller.MT_I.Ack_all |           5      7.94%      7.94% |           3      4.76%     12.70% |           5      7.94%     20.63% |           5      7.94%     28.57% |           3      4.76%     33.33% |           3      4.76%     38.10% |           3      4.76%     42.86% |           8     12.70%     55.56% |           5      7.94%     63.49% |           2      3.17%     66.67% |           5      7.94%     74.60% |           5      7.94%     82.54% |           3      4.76%     87.30% |           3      4.76%     92.06% |           4      6.35%     98.41% |           1      1.59%    100.00%
system.ruby.L2Cache_Controller.MT_I.Ack_all::total           63                      
system.ruby.L2Cache_Controller.MCT_I.WB_Data |          29      7.71%      7.71% |          23      6.12%     13.83% |          25      6.65%     20.48% |          19      5.05%     25.53% |          25      6.65%     32.18% |          21      5.59%     37.77% |          25      6.65%     44.41% |          19      5.05%     49.47% |          16      4.26%     53.72% |          27      7.18%     60.90% |          21      5.59%     66.49% |          22      5.85%     72.34% |          28      7.45%     79.79% |          23      6.12%     85.90% |          28      7.45%     93.35% |          25      6.65%    100.00%
system.ruby.L2Cache_Controller.MCT_I.WB_Data::total          376                      
system.ruby.L2Cache_Controller.MCT_I.Ack_all |           0      0.00%      0.00% |           2      6.25%      6.25% |           0      0.00%      6.25% |           1      3.12%      9.38% |           4     12.50%     21.88% |           2      6.25%     28.12% |           3      9.38%     37.50% |           3      9.38%     46.88% |           0      0.00%     46.88% |           2      6.25%     53.12% |           3      9.38%     62.50% |           3      9.38%     71.88% |           3      9.38%     81.25% |           4     12.50%     93.75% |           1      3.12%     96.88% |           1      3.12%    100.00%
system.ruby.L2Cache_Controller.MCT_I.Ack_all::total           32                      
system.ruby.L2Cache_Controller.I_I.Ack_all |         571      6.37%      6.37% |         585      6.53%     12.90% |         604      6.74%     19.64% |         520      5.80%     25.44% |         563      6.28%     31.72% |         604      6.74%     38.46% |         574      6.40%     44.87% |         544      6.07%     50.94% |         622      6.94%     57.88% |         477      5.32%     63.20% |         493      5.50%     68.70% |         554      6.18%     74.88% |         552      6.16%     81.04% |         545      6.08%     87.12% |         623      6.95%     94.07% |         531      5.93%    100.00%
system.ruby.L2Cache_Controller.I_I.Ack_all::total         8962                      
system.ruby.L2Cache_Controller.S_I.Ack   |           3      9.68%      9.68% |           3      9.68%     19.35% |           1      3.23%     22.58% |           2      6.45%     29.03% |           1      3.23%     32.26% |           3      9.68%     41.94% |           3      9.68%     51.61% |           0      0.00%     51.61% |           2      6.45%     58.06% |           0      0.00%     58.06% |           4     12.90%     70.97% |           1      3.23%     74.19% |           3      9.68%     83.87% |           1      3.23%     87.10% |           1      3.23%     90.32% |           3      9.68%    100.00%
system.ruby.L2Cache_Controller.S_I.Ack::total           31                      
system.ruby.L2Cache_Controller.S_I.Ack_all |           3      9.68%      9.68% |           3      9.68%     19.35% |           1      3.23%     22.58% |           2      6.45%     29.03% |           1      3.23%     32.26% |           3      9.68%     41.94% |           3      9.68%     51.61% |           0      0.00%     51.61% |           2      6.45%     58.06% |           0      0.00%     58.06% |           4     12.90%     70.97% |           1      3.23%     74.19% |           3      9.68%     83.87% |           1      3.23%     87.10% |           1      3.23%     90.32% |           3      9.68%    100.00%
system.ruby.L2Cache_Controller.S_I.Ack_all::total           31                      
system.ruby.L2Cache_Controller.ISS.Mem_Data |       29129      6.27%      6.27% |       28871      6.21%     12.48% |       28626      6.16%     18.64% |       29037      6.25%     24.89% |       28743      6.19%     31.08% |       28981      6.24%     37.31% |       29080      6.26%     43.57% |       29064      6.25%     49.83% |       29235      6.29%     56.12% |       28953      6.23%     62.35% |       29086      6.26%     68.61% |       29154      6.27%     74.88% |       29301      6.31%     81.19% |       29252      6.30%     87.49% |       29074      6.26%     93.74% |       29078      6.26%    100.00%
system.ruby.L2Cache_Controller.ISS.Mem_Data::total       464664                      
system.ruby.L2Cache_Controller.IS.Mem_Data |        1366      6.43%      6.43% |        1363      6.42%     12.85% |        1501      7.07%     19.92% |        1294      6.09%     26.01% |        1350      6.36%     32.37% |        1343      6.32%     38.70% |        1283      6.04%     44.74% |        1296      6.10%     50.84% |        1366      6.43%     57.28% |        1164      5.48%     62.76% |        1252      5.90%     68.65% |        1270      5.98%     74.64% |        1229      5.79%     80.42% |        1291      6.08%     86.50% |        1522      7.17%     93.67% |        1344      6.33%    100.00%
system.ruby.L2Cache_Controller.IS.Mem_Data::total        21234                      
system.ruby.L2Cache_Controller.IM.Mem_Data |        8203      6.22%      6.22% |        8293      6.29%     12.50% |        8318      6.30%     18.81% |        8281      6.28%     25.08% |        8274      6.27%     31.36% |        8277      6.27%     37.63% |        8269      6.27%     43.90% |        8265      6.26%     50.16% |        8234      6.24%     56.40% |        8194      6.21%     62.61% |        8235      6.24%     68.85% |        8204      6.22%     75.07% |        8192      6.21%     81.28% |        8242      6.25%     87.53% |        8240      6.25%     93.77% |        8216      6.23%    100.00%
system.ruby.L2Cache_Controller.IM.Mem_Data::total       131937                      
system.ruby.L2Cache_Controller.SS_MB.Exclusive_Unblock |          42      3.91%      3.91% |          42      3.91%      7.82% |          70      6.52%     14.34% |          56      5.21%     19.55% |          56      5.21%     24.77% |          84      7.82%     32.59% |          84      7.82%     40.41% |          84      7.82%     48.23% |          84      7.82%     56.05% |          84      7.82%     63.87% |          83      7.73%     71.60% |          81      7.54%     79.14% |          70      6.52%     85.66% |          70      6.52%     92.18% |          42      3.91%     96.09% |          42      3.91%    100.00%
system.ruby.L2Cache_Controller.SS_MB.Exclusive_Unblock::total         1074                      
system.ruby.L2Cache_Controller.MT_MB.Exclusive_Unblock |       49767      6.25%      6.25% |       49867      6.26%     12.51% |       49301      6.19%     18.70% |       49903      6.26%     24.96% |       49357      6.20%     31.15% |       49337      6.19%     37.35% |       49466      6.21%     43.56% |       49886      6.26%     49.82% |       49877      6.26%     56.08% |       49444      6.21%     62.29% |       49817      6.25%     68.54% |       50430      6.33%     74.87% |       50347      6.32%     81.19% |       50414      6.33%     87.52% |       50107      6.29%     93.81% |       49329      6.19%    100.00%
system.ruby.L2Cache_Controller.MT_MB.Exclusive_Unblock::total       796649                      
system.ruby.L2Cache_Controller.MT_IIB.WB_Data |          70      4.00%      4.00% |          70      4.00%      7.99% |          97      5.54%     13.53% |          95      5.42%     18.95% |          96      5.48%     24.43% |         138      7.88%     32.31% |         139      7.93%     40.24% |         139      7.93%     48.17% |         140      7.99%     56.16% |         140      7.99%     64.16% |         136      7.76%     71.92% |         132      7.53%     79.45% |         110      6.28%     85.73% |         111      6.34%     92.07% |          69      3.94%     96.00% |          70      4.00%    100.00%
system.ruby.L2Cache_Controller.MT_IIB.WB_Data::total         1752                      
system.ruby.L2Cache_Controller.MT_IIB.Unblock |           0      0.00%      0.00% |           0      0.00%      0.00% |           1      5.56%      5.56% |           3     16.67%     22.22% |           2     11.11%     33.33% |           2     11.11%     44.44% |           1      5.56%     50.00% |           1      5.56%     55.56% |           0      0.00%     55.56% |           0      0.00%     55.56% |           2     11.11%     66.67% |           2     11.11%     77.78% |           2     11.11%     88.89% |           1      5.56%     94.44% |           1      5.56%    100.00% |           0      0.00%    100.00%
system.ruby.L2Cache_Controller.MT_IIB.Unblock::total           18                      
system.ruby.L2Cache_Controller.MT_IB.WB_Data |           0      0.00%      0.00% |           0      0.00%      0.00% |           1      5.56%      5.56% |           3     16.67%     22.22% |           2     11.11%     33.33% |           2     11.11%     44.44% |           1      5.56%     50.00% |           1      5.56%     55.56% |           0      0.00%     55.56% |           0      0.00%     55.56% |           2     11.11%     66.67% |           2     11.11%     77.78% |           2     11.11%     88.89% |           1      5.56%     94.44% |           1      5.56%    100.00% |           0      0.00%    100.00%
system.ruby.L2Cache_Controller.MT_IB.WB_Data::total           18                      
system.ruby.L2Cache_Controller.MT_SB.Unblock |          70      4.00%      4.00% |          70      4.00%      7.99% |          97      5.54%     13.53% |          95      5.42%     18.95% |          96      5.48%     24.43% |         138      7.88%     32.31% |         139      7.93%     40.24% |         139      7.93%     48.17% |         140      7.99%     56.16% |         140      7.99%     64.16% |         136      7.76%     71.92% |         132      7.53%     79.45% |         110      6.28%     85.73% |         111      6.34%     92.07% |          69      3.94%     96.00% |          70      4.00%    100.00%
system.ruby.L2Cache_Controller.MT_SB.Unblock::total         1752                      

---------- End Simulation Statistics   ----------
