
---------- Begin Simulation Statistics ----------
sim_seconds                                  0.015971                       # Number of seconds simulated
sim_ticks                                 15970921500                       # Number of ticks simulated
final_tick                                15970921500                       # Number of ticks from beginning of simulation (restored from checkpoints and never reset)
sim_freq                                 1000000000000                       # Frequency of simulated ticks
host_inst_rate                                  57238                       # Simulator instruction rate (inst/s)
host_op_rate                                    99304                       # Simulator op (including micro ops) rate (op/s)
host_tick_rate                               19857965                       # Simulator tick rate (ticks/s)
host_mem_usage                                2041160                       # Number of bytes of host memory used
host_seconds                                   804.26                       # Real time elapsed on the host
sim_insts                                    46034108                       # Number of instructions simulated
sim_ops                                      79866283                       # Number of ops (including micro ops) simulated
system.voltage_domain.voltage                       1                       # Voltage in Volts
system.clk_domain.clock                          1000                       # Clock period in ticks
system.mem_ctrls0.pwrStateResidencyTicks::UNDEFINED  15970921500                       # Cumulative time (in ticks) in various power states
system.mem_ctrls0.bytes_read::ruby.dir_cntrl0     10216128                       # Number of bytes read from this memory
system.mem_ctrls0.bytes_read::total          10216128                       # Number of bytes read from this memory
system.mem_ctrls0.bytes_written::ruby.dir_cntrl0      1140096                       # Number of bytes written to this memory
system.mem_ctrls0.bytes_written::total        1140096                       # Number of bytes written to this memory
system.mem_ctrls0.num_reads::ruby.dir_cntrl0       159627                       # Number of read requests responded to by this memory
system.mem_ctrls0.num_reads::total             159627                       # Number of read requests responded to by this memory
system.mem_ctrls0.num_writes::ruby.dir_cntrl0        17814                       # Number of write requests responded to by this memory
system.mem_ctrls0.num_writes::total             17814                       # Number of write requests responded to by this memory
system.mem_ctrls0.bw_read::ruby.dir_cntrl0    639670541                       # Total read bandwidth from this memory (bytes/s)
system.mem_ctrls0.bw_read::total            639670541                       # Total read bandwidth from this memory (bytes/s)
system.mem_ctrls0.bw_write::ruby.dir_cntrl0     71385737                       # Write bandwidth from this memory (bytes/s)
system.mem_ctrls0.bw_write::total            71385737                       # Write bandwidth from this memory (bytes/s)
system.mem_ctrls0.bw_total::ruby.dir_cntrl0    711056278                       # Total bandwidth to/from this memory (bytes/s)
system.mem_ctrls0.bw_total::total           711056278                       # Total bandwidth to/from this memory (bytes/s)
system.mem_ctrls0.readReqs                     159627                       # Number of read requests accepted
system.mem_ctrls0.avgNetLat                      0.00                       # Average network latency to DRAM controller
system.mem_ctrls0.writeReqs                     17814                       # Number of write requests accepted
system.mem_ctrls0.readBursts                   159627                       # Number of DRAM read bursts, including those serviced by the write queue
system.mem_ctrls0.writeBursts                   17814                       # Number of DRAM write bursts, including those merged in the write queue
system.mem_ctrls0.bytesReadDRAM              10215872                       # Total number of bytes read from DRAM
system.mem_ctrls0.bytesReadWrQ                    256                       # Total number of bytes read from write queue
system.mem_ctrls0.bytesWritten                1138944                       # Total number of bytes written to DRAM
system.mem_ctrls0.bytesReadSys               10216128                       # Total read bytes from the system interface side
system.mem_ctrls0.bytesWrittenSys             1140096                       # Total written bytes from the system interface side
system.mem_ctrls0.servicedByWrQ                     4                       # Number of DRAM read bursts serviced by the write queue
system.mem_ctrls0.mergedWrBursts                    0                       # Number of DRAM write bursts merged with an existing one
system.mem_ctrls0.neitherReadNorWriteReqs            0                       # Number of requests that are neither read nor write
system.mem_ctrls0.perBankRdBursts::0             9896                       # Per bank write bursts
system.mem_ctrls0.perBankRdBursts::1             9460                       # Per bank write bursts
system.mem_ctrls0.perBankRdBursts::2             9808                       # Per bank write bursts
system.mem_ctrls0.perBankRdBursts::3             9847                       # Per bank write bursts
system.mem_ctrls0.perBankRdBursts::4             9372                       # Per bank write bursts
system.mem_ctrls0.perBankRdBursts::5             9270                       # Per bank write bursts
system.mem_ctrls0.perBankRdBursts::6             9791                       # Per bank write bursts
system.mem_ctrls0.perBankRdBursts::7             9796                       # Per bank write bursts
system.mem_ctrls0.perBankRdBursts::8            10120                       # Per bank write bursts
system.mem_ctrls0.perBankRdBursts::9            10548                       # Per bank write bursts
system.mem_ctrls0.perBankRdBursts::10           10790                       # Per bank write bursts
system.mem_ctrls0.perBankRdBursts::11           10375                       # Per bank write bursts
system.mem_ctrls0.perBankRdBursts::12           10728                       # Per bank write bursts
system.mem_ctrls0.perBankRdBursts::13           10563                       # Per bank write bursts
system.mem_ctrls0.perBankRdBursts::14            9693                       # Per bank write bursts
system.mem_ctrls0.perBankRdBursts::15            9566                       # Per bank write bursts
system.mem_ctrls0.perBankWrBursts::0              997                       # Per bank write bursts
system.mem_ctrls0.perBankWrBursts::1              928                       # Per bank write bursts
system.mem_ctrls0.perBankWrBursts::2             1075                       # Per bank write bursts
system.mem_ctrls0.perBankWrBursts::3             1128                       # Per bank write bursts
system.mem_ctrls0.perBankWrBursts::4              935                       # Per bank write bursts
system.mem_ctrls0.perBankWrBursts::5              975                       # Per bank write bursts
system.mem_ctrls0.perBankWrBursts::6             1172                       # Per bank write bursts
system.mem_ctrls0.perBankWrBursts::7             1119                       # Per bank write bursts
system.mem_ctrls0.perBankWrBursts::8             1207                       # Per bank write bursts
system.mem_ctrls0.perBankWrBursts::9             1299                       # Per bank write bursts
system.mem_ctrls0.perBankWrBursts::10            1267                       # Per bank write bursts
system.mem_ctrls0.perBankWrBursts::11            1261                       # Per bank write bursts
system.mem_ctrls0.perBankWrBursts::12            1349                       # Per bank write bursts
system.mem_ctrls0.perBankWrBursts::13            1305                       # Per bank write bursts
system.mem_ctrls0.perBankWrBursts::14             935                       # Per bank write bursts
system.mem_ctrls0.perBankWrBursts::15             844                       # Per bank write bursts
system.mem_ctrls0.numRdRetry                        0                       # Number of times read queue was full causing retry
system.mem_ctrls0.numWrRetry                        0                       # Number of times write queue was full causing retry
system.mem_ctrls0.totGap                  15969834000                       # Total gap between requests
system.mem_ctrls0.readPktSize::0                    0                       # Read request sizes (log2)
system.mem_ctrls0.readPktSize::1                    0                       # Read request sizes (log2)
system.mem_ctrls0.readPktSize::2                    0                       # Read request sizes (log2)
system.mem_ctrls0.readPktSize::3                    0                       # Read request sizes (log2)
system.mem_ctrls0.readPktSize::4                    0                       # Read request sizes (log2)
system.mem_ctrls0.readPktSize::5                    0                       # Read request sizes (log2)
system.mem_ctrls0.readPktSize::6               159627                       # Read request sizes (log2)
system.mem_ctrls0.writePktSize::0                   0                       # Write request sizes (log2)
system.mem_ctrls0.writePktSize::1                   0                       # Write request sizes (log2)
system.mem_ctrls0.writePktSize::2                   0                       # Write request sizes (log2)
system.mem_ctrls0.writePktSize::3                   0                       # Write request sizes (log2)
system.mem_ctrls0.writePktSize::4                   0                       # Write request sizes (log2)
system.mem_ctrls0.writePktSize::5                   0                       # Write request sizes (log2)
system.mem_ctrls0.writePktSize::6               17814                       # Write request sizes (log2)
system.mem_ctrls0.rdQLenPdf::0                  79771                       # What read queue length does an incoming req see
system.mem_ctrls0.rdQLenPdf::1                  44105                       # What read queue length does an incoming req see
system.mem_ctrls0.rdQLenPdf::2                  21722                       # What read queue length does an incoming req see
system.mem_ctrls0.rdQLenPdf::3                   9378                       # What read queue length does an incoming req see
system.mem_ctrls0.rdQLenPdf::4                   3295                       # What read queue length does an incoming req see
system.mem_ctrls0.rdQLenPdf::5                    966                       # What read queue length does an incoming req see
system.mem_ctrls0.rdQLenPdf::6                    282                       # What read queue length does an incoming req see
system.mem_ctrls0.rdQLenPdf::7                     77                       # What read queue length does an incoming req see
system.mem_ctrls0.rdQLenPdf::8                     22                       # What read queue length does an incoming req see
system.mem_ctrls0.rdQLenPdf::9                      5                       # What read queue length does an incoming req see
system.mem_ctrls0.rdQLenPdf::10                     0                       # What read queue length does an incoming req see
system.mem_ctrls0.rdQLenPdf::11                     0                       # What read queue length does an incoming req see
system.mem_ctrls0.rdQLenPdf::12                     0                       # What read queue length does an incoming req see
system.mem_ctrls0.rdQLenPdf::13                     0                       # What read queue length does an incoming req see
system.mem_ctrls0.rdQLenPdf::14                     0                       # What read queue length does an incoming req see
system.mem_ctrls0.rdQLenPdf::15                     0                       # What read queue length does an incoming req see
system.mem_ctrls0.rdQLenPdf::16                     0                       # What read queue length does an incoming req see
system.mem_ctrls0.rdQLenPdf::17                     0                       # What read queue length does an incoming req see
system.mem_ctrls0.rdQLenPdf::18                     0                       # What read queue length does an incoming req see
system.mem_ctrls0.rdQLenPdf::19                     0                       # What read queue length does an incoming req see
system.mem_ctrls0.rdQLenPdf::20                     0                       # What read queue length does an incoming req see
system.mem_ctrls0.rdQLenPdf::21                     0                       # What read queue length does an incoming req see
system.mem_ctrls0.rdQLenPdf::22                     0                       # What read queue length does an incoming req see
system.mem_ctrls0.rdQLenPdf::23                     0                       # What read queue length does an incoming req see
system.mem_ctrls0.rdQLenPdf::24                     0                       # What read queue length does an incoming req see
system.mem_ctrls0.rdQLenPdf::25                     0                       # What read queue length does an incoming req see
system.mem_ctrls0.rdQLenPdf::26                     0                       # What read queue length does an incoming req see
system.mem_ctrls0.rdQLenPdf::27                     0                       # What read queue length does an incoming req see
system.mem_ctrls0.rdQLenPdf::28                     0                       # What read queue length does an incoming req see
system.mem_ctrls0.rdQLenPdf::29                     0                       # What read queue length does an incoming req see
system.mem_ctrls0.rdQLenPdf::30                     0                       # What read queue length does an incoming req see
system.mem_ctrls0.rdQLenPdf::31                     0                       # What read queue length does an incoming req see
system.mem_ctrls0.wrQLenPdf::0                      1                       # What write queue length does an incoming req see
system.mem_ctrls0.wrQLenPdf::1                      1                       # What write queue length does an incoming req see
system.mem_ctrls0.wrQLenPdf::2                      1                       # What write queue length does an incoming req see
system.mem_ctrls0.wrQLenPdf::3                      1                       # What write queue length does an incoming req see
system.mem_ctrls0.wrQLenPdf::4                      1                       # What write queue length does an incoming req see
system.mem_ctrls0.wrQLenPdf::5                      1                       # What write queue length does an incoming req see
system.mem_ctrls0.wrQLenPdf::6                      1                       # What write queue length does an incoming req see
system.mem_ctrls0.wrQLenPdf::7                      1                       # What write queue length does an incoming req see
system.mem_ctrls0.wrQLenPdf::8                      1                       # What write queue length does an incoming req see
system.mem_ctrls0.wrQLenPdf::9                      1                       # What write queue length does an incoming req see
system.mem_ctrls0.wrQLenPdf::10                     1                       # What write queue length does an incoming req see
system.mem_ctrls0.wrQLenPdf::11                     1                       # What write queue length does an incoming req see
system.mem_ctrls0.wrQLenPdf::12                     1                       # What write queue length does an incoming req see
system.mem_ctrls0.wrQLenPdf::13                     1                       # What write queue length does an incoming req see
system.mem_ctrls0.wrQLenPdf::14                     1                       # What write queue length does an incoming req see
system.mem_ctrls0.wrQLenPdf::15                   293                       # What write queue length does an incoming req see
system.mem_ctrls0.wrQLenPdf::16                   349                       # What write queue length does an incoming req see
system.mem_ctrls0.wrQLenPdf::17                   743                       # What write queue length does an incoming req see
system.mem_ctrls0.wrQLenPdf::18                  1037                       # What write queue length does an incoming req see
system.mem_ctrls0.wrQLenPdf::19                  1085                       # What write queue length does an incoming req see
system.mem_ctrls0.wrQLenPdf::20                  1103                       # What write queue length does an incoming req see
system.mem_ctrls0.wrQLenPdf::21                  1098                       # What write queue length does an incoming req see
system.mem_ctrls0.wrQLenPdf::22                  1094                       # What write queue length does an incoming req see
system.mem_ctrls0.wrQLenPdf::23                  1103                       # What write queue length does an incoming req see
system.mem_ctrls0.wrQLenPdf::24                  1096                       # What write queue length does an incoming req see
system.mem_ctrls0.wrQLenPdf::25                  1101                       # What write queue length does an incoming req see
system.mem_ctrls0.wrQLenPdf::26                  1096                       # What write queue length does an incoming req see
system.mem_ctrls0.wrQLenPdf::27                  1097                       # What write queue length does an incoming req see
system.mem_ctrls0.wrQLenPdf::28                  1089                       # What write queue length does an incoming req see
system.mem_ctrls0.wrQLenPdf::29                  1090                       # What write queue length does an incoming req see
system.mem_ctrls0.wrQLenPdf::30                  1091                       # What write queue length does an incoming req see
system.mem_ctrls0.wrQLenPdf::31                  1091                       # What write queue length does an incoming req see
system.mem_ctrls0.wrQLenPdf::32                  1091                       # What write queue length does an incoming req see
system.mem_ctrls0.wrQLenPdf::33                    46                       # What write queue length does an incoming req see
system.mem_ctrls0.wrQLenPdf::34                     5                       # What write queue length does an incoming req see
system.mem_ctrls0.wrQLenPdf::35                     1                       # What write queue length does an incoming req see
system.mem_ctrls0.wrQLenPdf::36                     0                       # What write queue length does an incoming req see
system.mem_ctrls0.wrQLenPdf::37                     0                       # What write queue length does an incoming req see
system.mem_ctrls0.wrQLenPdf::38                     0                       # What write queue length does an incoming req see
system.mem_ctrls0.wrQLenPdf::39                     0                       # What write queue length does an incoming req see
system.mem_ctrls0.wrQLenPdf::40                     0                       # What write queue length does an incoming req see
system.mem_ctrls0.wrQLenPdf::41                     0                       # What write queue length does an incoming req see
system.mem_ctrls0.wrQLenPdf::42                     0                       # What write queue length does an incoming req see
system.mem_ctrls0.wrQLenPdf::43                     0                       # What write queue length does an incoming req see
system.mem_ctrls0.wrQLenPdf::44                     0                       # What write queue length does an incoming req see
system.mem_ctrls0.wrQLenPdf::45                     0                       # What write queue length does an incoming req see
system.mem_ctrls0.wrQLenPdf::46                     0                       # What write queue length does an incoming req see
system.mem_ctrls0.wrQLenPdf::47                     0                       # What write queue length does an incoming req see
system.mem_ctrls0.wrQLenPdf::48                     0                       # What write queue length does an incoming req see
system.mem_ctrls0.wrQLenPdf::49                     0                       # What write queue length does an incoming req see
system.mem_ctrls0.wrQLenPdf::50                     0                       # What write queue length does an incoming req see
system.mem_ctrls0.wrQLenPdf::51                     0                       # What write queue length does an incoming req see
system.mem_ctrls0.wrQLenPdf::52                     0                       # What write queue length does an incoming req see
system.mem_ctrls0.wrQLenPdf::53                     0                       # What write queue length does an incoming req see
system.mem_ctrls0.wrQLenPdf::54                     0                       # What write queue length does an incoming req see
system.mem_ctrls0.wrQLenPdf::55                     0                       # What write queue length does an incoming req see
system.mem_ctrls0.wrQLenPdf::56                     0                       # What write queue length does an incoming req see
system.mem_ctrls0.wrQLenPdf::57                     0                       # What write queue length does an incoming req see
system.mem_ctrls0.wrQLenPdf::58                     0                       # What write queue length does an incoming req see
system.mem_ctrls0.wrQLenPdf::59                     0                       # What write queue length does an incoming req see
system.mem_ctrls0.wrQLenPdf::60                     0                       # What write queue length does an incoming req see
system.mem_ctrls0.wrQLenPdf::61                     0                       # What write queue length does an incoming req see
system.mem_ctrls0.wrQLenPdf::62                     0                       # What write queue length does an incoming req see
system.mem_ctrls0.wrQLenPdf::63                     0                       # What write queue length does an incoming req see
system.mem_ctrls0.bytesPerActivate::samples       107709                       # Bytes accessed per row activation
system.mem_ctrls0.bytesPerActivate::mean   105.415295                       # Bytes accessed per row activation
system.mem_ctrls0.bytesPerActivate::gmean    84.665178                       # Bytes accessed per row activation
system.mem_ctrls0.bytesPerActivate::stdev   110.243423                       # Bytes accessed per row activation
system.mem_ctrls0.bytesPerActivate::0-127        79103     73.44%     73.44% # Bytes accessed per row activation
system.mem_ctrls0.bytesPerActivate::128-255        20414     18.95%     92.39% # Bytes accessed per row activation
system.mem_ctrls0.bytesPerActivate::256-383         3619      3.36%     95.75% # Bytes accessed per row activation
system.mem_ctrls0.bytesPerActivate::384-511         2004      1.86%     97.61% # Bytes accessed per row activation
system.mem_ctrls0.bytesPerActivate::512-639         1104      1.02%     98.64% # Bytes accessed per row activation
system.mem_ctrls0.bytesPerActivate::640-767          846      0.79%     99.43% # Bytes accessed per row activation
system.mem_ctrls0.bytesPerActivate::768-895          267      0.25%     99.67% # Bytes accessed per row activation
system.mem_ctrls0.bytesPerActivate::896-1023          187      0.17%     99.85% # Bytes accessed per row activation
system.mem_ctrls0.bytesPerActivate::1024-1151          165      0.15%    100.00% # Bytes accessed per row activation
system.mem_ctrls0.bytesPerActivate::total       107709                       # Bytes accessed per row activation
system.mem_ctrls0.rdPerTurnAround::samples         1070                       # Reads before turning the bus around for writes
system.mem_ctrls0.rdPerTurnAround::mean    149.176636                       # Reads before turning the bus around for writes
system.mem_ctrls0.rdPerTurnAround::gmean    56.298962                       # Reads before turning the bus around for writes
system.mem_ctrls0.rdPerTurnAround::stdev  1982.317989                       # Reads before turning the bus around for writes
system.mem_ctrls0.rdPerTurnAround::0-2047         1069     99.91%     99.91% # Reads before turning the bus around for writes
system.mem_ctrls0.rdPerTurnAround::63488-65535            1      0.09%    100.00% # Reads before turning the bus around for writes
system.mem_ctrls0.rdPerTurnAround::total         1070                       # Reads before turning the bus around for writes
system.mem_ctrls0.wrPerTurnAround::samples         1070                       # Writes before turning the bus around for reads
system.mem_ctrls0.wrPerTurnAround::mean     16.631776                       # Writes before turning the bus around for reads
system.mem_ctrls0.wrPerTurnAround::gmean    16.606852                       # Writes before turning the bus around for reads
system.mem_ctrls0.wrPerTurnAround::stdev     0.925130                       # Writes before turning the bus around for reads
system.mem_ctrls0.wrPerTurnAround::16             715     66.82%     66.82% # Writes before turning the bus around for reads
system.mem_ctrls0.wrPerTurnAround::17              46      4.30%     71.12% # Writes before turning the bus around for reads
system.mem_ctrls0.wrPerTurnAround::18             297     27.76%     98.88% # Writes before turning the bus around for reads
system.mem_ctrls0.wrPerTurnAround::19              12      1.12%    100.00% # Writes before turning the bus around for reads
system.mem_ctrls0.wrPerTurnAround::total         1070                       # Writes before turning the bus around for reads
system.mem_ctrls0.totQLat                  4683881000                       # Total ticks spent queuing
system.mem_ctrls0.totMemAccLat             7676812250                       # Total ticks spent from burst creation until serviced by the DRAM
system.mem_ctrls0.totBusLat                 798115000                       # Total ticks spent in databus transfers
system.mem_ctrls0.avgQLat                    29343.40                       # Average queueing delay per DRAM burst
system.mem_ctrls0.avgBusLat                   5000.00                       # Average bus latency per DRAM burst
system.mem_ctrls0.avgMemAccLat               48093.40                       # Average memory access latency per DRAM burst
system.mem_ctrls0.avgRdBW                      639.65                       # Average DRAM read bandwidth in MiByte/s
system.mem_ctrls0.avgWrBW                       71.31                       # Average achieved write bandwidth in MiByte/s
system.mem_ctrls0.avgRdBWSys                   639.67                       # Average system read bandwidth in MiByte/s
system.mem_ctrls0.avgWrBWSys                    71.39                       # Average system write bandwidth in MiByte/s
system.mem_ctrls0.peakBW                     12800.00                       # Theoretical peak bandwidth in MiByte/s
system.mem_ctrls0.busUtil                        5.55                       # Data bus utilization in percentage
system.mem_ctrls0.busUtilRead                    5.00                       # Data bus utilization in percentage for reads
system.mem_ctrls0.busUtilWrite                   0.56                       # Data bus utilization in percentage for writes
system.mem_ctrls0.avgRdQLen                      1.56                       # Average read queue length when enqueuing
system.mem_ctrls0.avgWrQLen                     12.91                       # Average write queue length when enqueuing
system.mem_ctrls0.readRowHits                   65678                       # Number of row buffer hits during reads
system.mem_ctrls0.writeRowHits                   4023                       # Number of row buffer hits during writes
system.mem_ctrls0.readRowHitRate                41.15                       # Row buffer hit rate for reads
system.mem_ctrls0.writeRowHitRate               22.58                       # Row buffer hit rate for writes
system.mem_ctrls0.avgGap                     90000.81                       # Average gap between requests
system.mem_ctrls0.pageHitRate                   39.28                       # Row buffer hit rate, read and write combined
system.mem_ctrls0_0.actEnergy               369159420                       # Energy for activate commands per rank (pJ)
system.mem_ctrls0_0.preEnergy               196193910                       # Energy for precharge commands per rank (pJ)
system.mem_ctrls0_0.readEnergy              551493600                       # Energy for read commands per rank (pJ)
system.mem_ctrls0_0.writeEnergy              43477380                       # Energy for write commands per rank (pJ)
system.mem_ctrls0_0.refreshEnergy        1261855920.000000                       # Energy for refresh commands per rank (pJ)
system.mem_ctrls0_0.actBackEnergy          1511134980                       # Energy for active background per rank (pJ)
system.mem_ctrls0_0.preBackEnergy            34523040                       # Energy for precharge background per rank (pJ)
system.mem_ctrls0_0.actPowerDownEnergy     5292371910                       # Energy for active power-down per rank (pJ)
system.mem_ctrls0_0.prePowerDownEnergy      311488800                       # Energy for precharge power-down per rank (pJ)
system.mem_ctrls0_0.selfRefreshEnergy        48876855                       # Energy for self refresh per rank (pJ)
system.mem_ctrls0_0.totalEnergy            9620981565                       # Total energy per rank (pJ)
system.mem_ctrls0_0.averagePower           602.406127                       # Core power per rank (mW)
system.mem_ctrls0_0.totalIdleTime         12565027250                       # Total Idle time Per DRAM Rank
system.mem_ctrls0_0.memoryStateTime::IDLE     17693500                       # Time in different power states
system.mem_ctrls0_0.memoryStateTime::REF    533954000                       # Time in different power states
system.mem_ctrls0_0.memoryStateTime::SREF    148973500                       # Time in different power states
system.mem_ctrls0_0.memoryStateTime::PRE_PDN    811234250                       # Time in different power states
system.mem_ctrls0_0.memoryStateTime::ACT   2853280500                       # Time in different power states
system.mem_ctrls0_0.memoryStateTime::ACT_PDN  11605785750                       # Time in different power states
system.mem_ctrls0_1.actEnergy               399947100                       # Energy for activate commands per rank (pJ)
system.mem_ctrls0_1.preEnergy               212561745                       # Energy for precharge commands per rank (pJ)
system.mem_ctrls0_1.readEnergy              588214620                       # Energy for read commands per rank (pJ)
system.mem_ctrls0_1.writeEnergy              49417740                       # Energy for write commands per rank (pJ)
system.mem_ctrls0_1.refreshEnergy        1262470560.000000                       # Energy for refresh commands per rank (pJ)
system.mem_ctrls0_1.actBackEnergy          1603392900                       # Energy for active background per rank (pJ)
system.mem_ctrls0_1.preBackEnergy            33708000                       # Energy for precharge background per rank (pJ)
system.mem_ctrls0_1.actPowerDownEnergy     5328560640                       # Energy for active power-down per rank (pJ)
system.mem_ctrls0_1.prePowerDownEnergy      229209600                       # Energy for precharge power-down per rank (pJ)
system.mem_ctrls0_1.selfRefreshEnergy        28614105                       # Energy for self refresh per rank (pJ)
system.mem_ctrls0_1.totalEnergy            9736215720                       # Total energy per rank (pJ)
system.mem_ctrls0_1.averagePower           609.621374                       # Core power per rank (mW)
system.mem_ctrls0_1.totalIdleTime         12367159250                       # Total Idle time Per DRAM Rank
system.mem_ctrls0_1.memoryStateTime::IDLE     15420500                       # Time in different power states
system.mem_ctrls0_1.memoryStateTime::REF    534160000                       # Time in different power states
system.mem_ctrls0_1.memoryStateTime::SREF     84326250                       # Time in different power states
system.mem_ctrls0_1.memoryStateTime::PRE_PDN    596778250                       # Time in different power states
system.mem_ctrls0_1.memoryStateTime::ACT   3054181750                       # Time in different power states
system.mem_ctrls0_1.memoryStateTime::ACT_PDN  11686054750                       # Time in different power states
system.mem_ctrls1.pwrStateResidencyTicks::UNDEFINED  15970921500                       # Cumulative time (in ticks) in various power states
system.mem_ctrls1.bytes_read::ruby.dir_cntrl1     10186624                       # Number of bytes read from this memory
system.mem_ctrls1.bytes_read::total          10186624                       # Number of bytes read from this memory
system.mem_ctrls1.bytes_written::ruby.dir_cntrl1      1128832                       # Number of bytes written to this memory
system.mem_ctrls1.bytes_written::total        1128832                       # Number of bytes written to this memory
system.mem_ctrls1.num_reads::ruby.dir_cntrl1       159166                       # Number of read requests responded to by this memory
system.mem_ctrls1.num_reads::total             159166                       # Number of read requests responded to by this memory
system.mem_ctrls1.num_writes::ruby.dir_cntrl1        17638                       # Number of write requests responded to by this memory
system.mem_ctrls1.num_writes::total             17638                       # Number of write requests responded to by this memory
system.mem_ctrls1.bw_read::ruby.dir_cntrl1    637823184                       # Total read bandwidth from this memory (bytes/s)
system.mem_ctrls1.bw_read::total            637823184                       # Total read bandwidth from this memory (bytes/s)
system.mem_ctrls1.bw_write::ruby.dir_cntrl1     70680455                       # Write bandwidth from this memory (bytes/s)
system.mem_ctrls1.bw_write::total            70680455                       # Write bandwidth from this memory (bytes/s)
system.mem_ctrls1.bw_total::ruby.dir_cntrl1    708503639                       # Total bandwidth to/from this memory (bytes/s)
system.mem_ctrls1.bw_total::total           708503639                       # Total bandwidth to/from this memory (bytes/s)
system.mem_ctrls1.readReqs                     159166                       # Number of read requests accepted
system.mem_ctrls1.avgNetLat                      0.00                       # Average network latency to DRAM controller
system.mem_ctrls1.writeReqs                     17638                       # Number of write requests accepted
system.mem_ctrls1.readBursts                   159166                       # Number of DRAM read bursts, including those serviced by the write queue
system.mem_ctrls1.writeBursts                   17638                       # Number of DRAM write bursts, including those merged in the write queue
system.mem_ctrls1.bytesReadDRAM              10186368                       # Total number of bytes read from DRAM
system.mem_ctrls1.bytesReadWrQ                    256                       # Total number of bytes read from write queue
system.mem_ctrls1.bytesWritten                1126784                       # Total number of bytes written to DRAM
system.mem_ctrls1.bytesReadSys               10186624                       # Total read bytes from the system interface side
system.mem_ctrls1.bytesWrittenSys             1128832                       # Total written bytes from the system interface side
system.mem_ctrls1.servicedByWrQ                     4                       # Number of DRAM read bursts serviced by the write queue
system.mem_ctrls1.mergedWrBursts                    0                       # Number of DRAM write bursts merged with an existing one
system.mem_ctrls1.neitherReadNorWriteReqs            0                       # Number of requests that are neither read nor write
system.mem_ctrls1.perBankRdBursts::0             9831                       # Per bank write bursts
system.mem_ctrls1.perBankRdBursts::1             9371                       # Per bank write bursts
system.mem_ctrls1.perBankRdBursts::2             9815                       # Per bank write bursts
system.mem_ctrls1.perBankRdBursts::3             9815                       # Per bank write bursts
system.mem_ctrls1.perBankRdBursts::4             9369                       # Per bank write bursts
system.mem_ctrls1.perBankRdBursts::5             9264                       # Per bank write bursts
system.mem_ctrls1.perBankRdBursts::6             9728                       # Per bank write bursts
system.mem_ctrls1.perBankRdBursts::7             9753                       # Per bank write bursts
system.mem_ctrls1.perBankRdBursts::8            10128                       # Per bank write bursts
system.mem_ctrls1.perBankRdBursts::9            10486                       # Per bank write bursts
system.mem_ctrls1.perBankRdBursts::10           10811                       # Per bank write bursts
system.mem_ctrls1.perBankRdBursts::11           10353                       # Per bank write bursts
system.mem_ctrls1.perBankRdBursts::12           10752                       # Per bank write bursts
system.mem_ctrls1.perBankRdBursts::13           10486                       # Per bank write bursts
system.mem_ctrls1.perBankRdBursts::14            9678                       # Per bank write bursts
system.mem_ctrls1.perBankRdBursts::15            9522                       # Per bank write bursts
system.mem_ctrls1.perBankWrBursts::0              967                       # Per bank write bursts
system.mem_ctrls1.perBankWrBursts::1              869                       # Per bank write bursts
system.mem_ctrls1.perBankWrBursts::2             1064                       # Per bank write bursts
system.mem_ctrls1.perBankWrBursts::3             1132                       # Per bank write bursts
system.mem_ctrls1.perBankWrBursts::4              962                       # Per bank write bursts
system.mem_ctrls1.perBankWrBursts::5              964                       # Per bank write bursts
system.mem_ctrls1.perBankWrBursts::6             1101                       # Per bank write bursts
system.mem_ctrls1.perBankWrBursts::7             1113                       # Per bank write bursts
system.mem_ctrls1.perBankWrBursts::8             1194                       # Per bank write bursts
system.mem_ctrls1.perBankWrBursts::9             1294                       # Per bank write bursts
system.mem_ctrls1.perBankWrBursts::10            1271                       # Per bank write bursts
system.mem_ctrls1.perBankWrBursts::11            1232                       # Per bank write bursts
system.mem_ctrls1.perBankWrBursts::12            1384                       # Per bank write bursts
system.mem_ctrls1.perBankWrBursts::13            1270                       # Per bank write bursts
system.mem_ctrls1.perBankWrBursts::14             953                       # Per bank write bursts
system.mem_ctrls1.perBankWrBursts::15             836                       # Per bank write bursts
system.mem_ctrls1.numRdRetry                        0                       # Number of times read queue was full causing retry
system.mem_ctrls1.numWrRetry                        0                       # Number of times write queue was full causing retry
system.mem_ctrls1.totGap                  15970335500                       # Total gap between requests
system.mem_ctrls1.readPktSize::0                    0                       # Read request sizes (log2)
system.mem_ctrls1.readPktSize::1                    0                       # Read request sizes (log2)
system.mem_ctrls1.readPktSize::2                    0                       # Read request sizes (log2)
system.mem_ctrls1.readPktSize::3                    0                       # Read request sizes (log2)
system.mem_ctrls1.readPktSize::4                    0                       # Read request sizes (log2)
system.mem_ctrls1.readPktSize::5                    0                       # Read request sizes (log2)
system.mem_ctrls1.readPktSize::6               159166                       # Read request sizes (log2)
system.mem_ctrls1.writePktSize::0                   0                       # Write request sizes (log2)
system.mem_ctrls1.writePktSize::1                   0                       # Write request sizes (log2)
system.mem_ctrls1.writePktSize::2                   0                       # Write request sizes (log2)
system.mem_ctrls1.writePktSize::3                   0                       # Write request sizes (log2)
system.mem_ctrls1.writePktSize::4                   0                       # Write request sizes (log2)
system.mem_ctrls1.writePktSize::5                   0                       # Write request sizes (log2)
system.mem_ctrls1.writePktSize::6               17638                       # Write request sizes (log2)
system.mem_ctrls1.rdQLenPdf::0                  80197                       # What read queue length does an incoming req see
system.mem_ctrls1.rdQLenPdf::1                  43943                       # What read queue length does an incoming req see
system.mem_ctrls1.rdQLenPdf::2                  21476                       # What read queue length does an incoming req see
system.mem_ctrls1.rdQLenPdf::3                   9064                       # What read queue length does an incoming req see
system.mem_ctrls1.rdQLenPdf::4                   3223                       # What read queue length does an incoming req see
system.mem_ctrls1.rdQLenPdf::5                    934                       # What read queue length does an incoming req see
system.mem_ctrls1.rdQLenPdf::6                    257                       # What read queue length does an incoming req see
system.mem_ctrls1.rdQLenPdf::7                     47                       # What read queue length does an incoming req see
system.mem_ctrls1.rdQLenPdf::8                     18                       # What read queue length does an incoming req see
system.mem_ctrls1.rdQLenPdf::9                      3                       # What read queue length does an incoming req see
system.mem_ctrls1.rdQLenPdf::10                     0                       # What read queue length does an incoming req see
system.mem_ctrls1.rdQLenPdf::11                     0                       # What read queue length does an incoming req see
system.mem_ctrls1.rdQLenPdf::12                     0                       # What read queue length does an incoming req see
system.mem_ctrls1.rdQLenPdf::13                     0                       # What read queue length does an incoming req see
system.mem_ctrls1.rdQLenPdf::14                     0                       # What read queue length does an incoming req see
system.mem_ctrls1.rdQLenPdf::15                     0                       # What read queue length does an incoming req see
system.mem_ctrls1.rdQLenPdf::16                     0                       # What read queue length does an incoming req see
system.mem_ctrls1.rdQLenPdf::17                     0                       # What read queue length does an incoming req see
system.mem_ctrls1.rdQLenPdf::18                     0                       # What read queue length does an incoming req see
system.mem_ctrls1.rdQLenPdf::19                     0                       # What read queue length does an incoming req see
system.mem_ctrls1.rdQLenPdf::20                     0                       # What read queue length does an incoming req see
system.mem_ctrls1.rdQLenPdf::21                     0                       # What read queue length does an incoming req see
system.mem_ctrls1.rdQLenPdf::22                     0                       # What read queue length does an incoming req see
system.mem_ctrls1.rdQLenPdf::23                     0                       # What read queue length does an incoming req see
system.mem_ctrls1.rdQLenPdf::24                     0                       # What read queue length does an incoming req see
system.mem_ctrls1.rdQLenPdf::25                     0                       # What read queue length does an incoming req see
system.mem_ctrls1.rdQLenPdf::26                     0                       # What read queue length does an incoming req see
system.mem_ctrls1.rdQLenPdf::27                     0                       # What read queue length does an incoming req see
system.mem_ctrls1.rdQLenPdf::28                     0                       # What read queue length does an incoming req see
system.mem_ctrls1.rdQLenPdf::29                     0                       # What read queue length does an incoming req see
system.mem_ctrls1.rdQLenPdf::30                     0                       # What read queue length does an incoming req see
system.mem_ctrls1.rdQLenPdf::31                     0                       # What read queue length does an incoming req see
system.mem_ctrls1.wrQLenPdf::0                      1                       # What write queue length does an incoming req see
system.mem_ctrls1.wrQLenPdf::1                      1                       # What write queue length does an incoming req see
system.mem_ctrls1.wrQLenPdf::2                      1                       # What write queue length does an incoming req see
system.mem_ctrls1.wrQLenPdf::3                      1                       # What write queue length does an incoming req see
system.mem_ctrls1.wrQLenPdf::4                      1                       # What write queue length does an incoming req see
system.mem_ctrls1.wrQLenPdf::5                      1                       # What write queue length does an incoming req see
system.mem_ctrls1.wrQLenPdf::6                      1                       # What write queue length does an incoming req see
system.mem_ctrls1.wrQLenPdf::7                      1                       # What write queue length does an incoming req see
system.mem_ctrls1.wrQLenPdf::8                      1                       # What write queue length does an incoming req see
system.mem_ctrls1.wrQLenPdf::9                      1                       # What write queue length does an incoming req see
system.mem_ctrls1.wrQLenPdf::10                     1                       # What write queue length does an incoming req see
system.mem_ctrls1.wrQLenPdf::11                     1                       # What write queue length does an incoming req see
system.mem_ctrls1.wrQLenPdf::12                     1                       # What write queue length does an incoming req see
system.mem_ctrls1.wrQLenPdf::13                     1                       # What write queue length does an incoming req see
system.mem_ctrls1.wrQLenPdf::14                     1                       # What write queue length does an incoming req see
system.mem_ctrls1.wrQLenPdf::15                   290                       # What write queue length does an incoming req see
system.mem_ctrls1.wrQLenPdf::16                   333                       # What write queue length does an incoming req see
system.mem_ctrls1.wrQLenPdf::17                   725                       # What write queue length does an incoming req see
system.mem_ctrls1.wrQLenPdf::18                  1012                       # What write queue length does an incoming req see
system.mem_ctrls1.wrQLenPdf::19                  1081                       # What write queue length does an incoming req see
system.mem_ctrls1.wrQLenPdf::20                  1092                       # What write queue length does an incoming req see
system.mem_ctrls1.wrQLenPdf::21                  1093                       # What write queue length does an incoming req see
system.mem_ctrls1.wrQLenPdf::22                  1096                       # What write queue length does an incoming req see
system.mem_ctrls1.wrQLenPdf::23                  1090                       # What write queue length does an incoming req see
system.mem_ctrls1.wrQLenPdf::24                  1088                       # What write queue length does an incoming req see
system.mem_ctrls1.wrQLenPdf::25                  1086                       # What write queue length does an incoming req see
system.mem_ctrls1.wrQLenPdf::26                  1095                       # What write queue length does an incoming req see
system.mem_ctrls1.wrQLenPdf::27                  1083                       # What write queue length does an incoming req see
system.mem_ctrls1.wrQLenPdf::28                  1089                       # What write queue length does an incoming req see
system.mem_ctrls1.wrQLenPdf::29                  1087                       # What write queue length does an incoming req see
system.mem_ctrls1.wrQLenPdf::30                  1080                       # What write queue length does an incoming req see
system.mem_ctrls1.wrQLenPdf::31                  1083                       # What write queue length does an incoming req see
system.mem_ctrls1.wrQLenPdf::32                  1074                       # What write queue length does an incoming req see
system.mem_ctrls1.wrQLenPdf::33                    40                       # What write queue length does an incoming req see
system.mem_ctrls1.wrQLenPdf::34                     5                       # What write queue length does an incoming req see
system.mem_ctrls1.wrQLenPdf::35                     1                       # What write queue length does an incoming req see
system.mem_ctrls1.wrQLenPdf::36                     0                       # What write queue length does an incoming req see
system.mem_ctrls1.wrQLenPdf::37                     0                       # What write queue length does an incoming req see
system.mem_ctrls1.wrQLenPdf::38                     0                       # What write queue length does an incoming req see
system.mem_ctrls1.wrQLenPdf::39                     0                       # What write queue length does an incoming req see
system.mem_ctrls1.wrQLenPdf::40                     0                       # What write queue length does an incoming req see
system.mem_ctrls1.wrQLenPdf::41                     0                       # What write queue length does an incoming req see
system.mem_ctrls1.wrQLenPdf::42                     0                       # What write queue length does an incoming req see
system.mem_ctrls1.wrQLenPdf::43                     0                       # What write queue length does an incoming req see
system.mem_ctrls1.wrQLenPdf::44                     0                       # What write queue length does an incoming req see
system.mem_ctrls1.wrQLenPdf::45                     0                       # What write queue length does an incoming req see
system.mem_ctrls1.wrQLenPdf::46                     0                       # What write queue length does an incoming req see
system.mem_ctrls1.wrQLenPdf::47                     0                       # What write queue length does an incoming req see
system.mem_ctrls1.wrQLenPdf::48                     0                       # What write queue length does an incoming req see
system.mem_ctrls1.wrQLenPdf::49                     0                       # What write queue length does an incoming req see
system.mem_ctrls1.wrQLenPdf::50                     0                       # What write queue length does an incoming req see
system.mem_ctrls1.wrQLenPdf::51                     0                       # What write queue length does an incoming req see
system.mem_ctrls1.wrQLenPdf::52                     0                       # What write queue length does an incoming req see
system.mem_ctrls1.wrQLenPdf::53                     0                       # What write queue length does an incoming req see
system.mem_ctrls1.wrQLenPdf::54                     0                       # What write queue length does an incoming req see
system.mem_ctrls1.wrQLenPdf::55                     0                       # What write queue length does an incoming req see
system.mem_ctrls1.wrQLenPdf::56                     0                       # What write queue length does an incoming req see
system.mem_ctrls1.wrQLenPdf::57                     0                       # What write queue length does an incoming req see
system.mem_ctrls1.wrQLenPdf::58                     0                       # What write queue length does an incoming req see
system.mem_ctrls1.wrQLenPdf::59                     0                       # What write queue length does an incoming req see
system.mem_ctrls1.wrQLenPdf::60                     0                       # What write queue length does an incoming req see
system.mem_ctrls1.wrQLenPdf::61                     0                       # What write queue length does an incoming req see
system.mem_ctrls1.wrQLenPdf::62                     0                       # What write queue length does an incoming req see
system.mem_ctrls1.wrQLenPdf::63                     0                       # What write queue length does an incoming req see
system.mem_ctrls1.bytesPerActivate::samples       106840                       # Bytes accessed per row activation
system.mem_ctrls1.bytesPerActivate::mean   105.884538                       # Bytes accessed per row activation
system.mem_ctrls1.bytesPerActivate::gmean    84.850819                       # Bytes accessed per row activation
system.mem_ctrls1.bytesPerActivate::stdev   111.380608                       # Bytes accessed per row activation
system.mem_ctrls1.bytesPerActivate::0-127        78257     73.25%     73.25% # Bytes accessed per row activation
system.mem_ctrls1.bytesPerActivate::128-255        20396     19.09%     92.34% # Bytes accessed per row activation
system.mem_ctrls1.bytesPerActivate::256-383         3613      3.38%     95.72% # Bytes accessed per row activation
system.mem_ctrls1.bytesPerActivate::384-511         1897      1.78%     97.49% # Bytes accessed per row activation
system.mem_ctrls1.bytesPerActivate::512-639         1176      1.10%     98.60% # Bytes accessed per row activation
system.mem_ctrls1.bytesPerActivate::640-767          863      0.81%     99.40% # Bytes accessed per row activation
system.mem_ctrls1.bytesPerActivate::768-895          280      0.26%     99.66% # Bytes accessed per row activation
system.mem_ctrls1.bytesPerActivate::896-1023          185      0.17%     99.84% # Bytes accessed per row activation
system.mem_ctrls1.bytesPerActivate::1024-1151          173      0.16%    100.00% # Bytes accessed per row activation
system.mem_ctrls1.bytesPerActivate::total       106840                       # Bytes accessed per row activation
system.mem_ctrls1.rdPerTurnAround::samples         1060                       # Reads before turning the bus around for writes
system.mem_ctrls1.rdPerTurnAround::mean    150.128302                       # Reads before turning the bus around for writes
system.mem_ctrls1.rdPerTurnAround::gmean    56.283659                       # Reads before turning the bus around for writes
system.mem_ctrls1.rdPerTurnAround::stdev  1988.799480                       # Reads before turning the bus around for writes
system.mem_ctrls1.rdPerTurnAround::0-2047         1058     99.81%     99.81% # Reads before turning the bus around for writes
system.mem_ctrls1.rdPerTurnAround::2048-4095            1      0.09%     99.91% # Reads before turning the bus around for writes
system.mem_ctrls1.rdPerTurnAround::63488-65535            1      0.09%    100.00% # Reads before turning the bus around for writes
system.mem_ctrls1.rdPerTurnAround::total         1060                       # Reads before turning the bus around for writes
system.mem_ctrls1.wrPerTurnAround::samples         1060                       # Writes before turning the bus around for reads
system.mem_ctrls1.wrPerTurnAround::mean     16.609434                       # Writes before turning the bus around for reads
system.mem_ctrls1.wrPerTurnAround::gmean    16.584844                       # Writes before turning the bus around for reads
system.mem_ctrls1.wrPerTurnAround::stdev     0.918957                       # Writes before turning the bus around for reads
system.mem_ctrls1.wrPerTurnAround::16             726     68.49%     68.49% # Writes before turning the bus around for reads
system.mem_ctrls1.wrPerTurnAround::17              30      2.83%     71.32% # Writes before turning the bus around for reads
system.mem_ctrls1.wrPerTurnAround::18             297     28.02%     99.34% # Writes before turning the bus around for reads
system.mem_ctrls1.wrPerTurnAround::19               6      0.57%     99.91% # Writes before turning the bus around for reads
system.mem_ctrls1.wrPerTurnAround::20               1      0.09%    100.00% # Writes before turning the bus around for reads
system.mem_ctrls1.wrPerTurnAround::total         1060                       # Writes before turning the bus around for reads
system.mem_ctrls1.totQLat                  4523574000                       # Total ticks spent queuing
system.mem_ctrls1.totMemAccLat             7507861500                       # Total ticks spent from burst creation until serviced by the DRAM
system.mem_ctrls1.totBusLat                 795810000                       # Total ticks spent in databus transfers
system.mem_ctrls1.avgQLat                    28421.19                       # Average queueing delay per DRAM burst
system.mem_ctrls1.avgBusLat                   5000.00                       # Average bus latency per DRAM burst
system.mem_ctrls1.avgMemAccLat               47171.19                       # Average memory access latency per DRAM burst
system.mem_ctrls1.avgRdBW                      637.81                       # Average DRAM read bandwidth in MiByte/s
system.mem_ctrls1.avgWrBW                       70.55                       # Average achieved write bandwidth in MiByte/s
system.mem_ctrls1.avgRdBWSys                   637.82                       # Average system read bandwidth in MiByte/s
system.mem_ctrls1.avgWrBWSys                    70.68                       # Average system write bandwidth in MiByte/s
system.mem_ctrls1.peakBW                     12800.00                       # Theoretical peak bandwidth in MiByte/s
system.mem_ctrls1.busUtil                        5.53                       # Data bus utilization in percentage
system.mem_ctrls1.busUtilRead                    4.98                       # Data bus utilization in percentage for reads
system.mem_ctrls1.busUtilWrite                   0.55                       # Data bus utilization in percentage for writes
system.mem_ctrls1.avgRdQLen                      1.54                       # Average read queue length when enqueuing
system.mem_ctrls1.avgWrQLen                     13.06                       # Average write queue length when enqueuing
system.mem_ctrls1.readRowHits                   65879                       # Number of row buffer hits during reads
system.mem_ctrls1.writeRowHits                   4046                       # Number of row buffer hits during writes
system.mem_ctrls1.readRowHitRate                41.39                       # Row buffer hit rate for reads
system.mem_ctrls1.writeRowHitRate               22.94                       # Row buffer hit rate for writes
system.mem_ctrls1.avgGap                     90327.91                       # Average gap between requests
system.mem_ctrls1.pageHitRate                   39.55                       # Row buffer hit rate, read and write combined
system.mem_ctrls1_0.actEnergy               364689780                       # Energy for activate commands per rank (pJ)
system.mem_ctrls1_0.preEnergy               193825830                       # Energy for precharge commands per rank (pJ)
system.mem_ctrls1_0.readEnergy              549394440                       # Energy for read commands per rank (pJ)
system.mem_ctrls1_0.writeEnergy              42657840                       # Energy for write commands per rank (pJ)
system.mem_ctrls1_0.refreshEnergy        1259397360.000000                       # Energy for refresh commands per rank (pJ)
system.mem_ctrls1_0.actBackEnergy          1496098950                       # Energy for active background per rank (pJ)
system.mem_ctrls1_0.preBackEnergy            35458080                       # Energy for precharge background per rank (pJ)
system.mem_ctrls1_0.actPowerDownEnergy     5284611930                       # Energy for active power-down per rank (pJ)
system.mem_ctrls1_0.prePowerDownEnergy      315218880                       # Energy for precharge power-down per rank (pJ)
system.mem_ctrls1_0.selfRefreshEnergy        58365270                       # Energy for self refresh per rank (pJ)
system.mem_ctrls1_0.totalEnergy            9599844630                       # Total energy per rank (pJ)
system.mem_ctrls1_0.averagePower           601.082663                       # Core power per rank (mW)
system.mem_ctrls1_0.totalIdleTime         12597520000                       # Total Idle time Per DRAM Rank
system.mem_ctrls1_0.memoryStateTime::IDLE     18572750                       # Time in different power states
system.mem_ctrls1_0.memoryStateTime::REF    532920000                       # Time in different power states
system.mem_ctrls1_0.memoryStateTime::SREF    187443000                       # Time in different power states
system.mem_ctrls1_0.memoryStateTime::PRE_PDN    820787000                       # Time in different power states
system.mem_ctrls1_0.memoryStateTime::ACT   2821454500                       # Time in different power states
system.mem_ctrls1_0.memoryStateTime::ACT_PDN  11589744250                       # Time in different power states
system.mem_ctrls1_1.actEnergy               398169240                       # Energy for activate commands per rank (pJ)
system.mem_ctrls1_1.preEnergy               211631970                       # Energy for precharge commands per rank (pJ)
system.mem_ctrls1_1.readEnergy              587022240                       # Energy for read commands per rank (pJ)
system.mem_ctrls1_1.writeEnergy              49245480                       # Energy for write commands per rank (pJ)
system.mem_ctrls1_1.refreshEnergy        1261241280.000000                       # Energy for refresh commands per rank (pJ)
system.mem_ctrls1_1.actBackEnergy          1587985230                       # Energy for active background per rank (pJ)
system.mem_ctrls1_1.preBackEnergy            33905280                       # Energy for precharge background per rank (pJ)
system.mem_ctrls1_1.actPowerDownEnergy     5356872540                       # Energy for active power-down per rank (pJ)
system.mem_ctrls1_1.prePowerDownEnergy      219730080                       # Energy for precharge power-down per rank (pJ)
system.mem_ctrls1_1.selfRefreshEnergy        26049090                       # Energy for self refresh per rank (pJ)
system.mem_ctrls1_1.totalEnergy            9731935950                       # Total energy per rank (pJ)
system.mem_ctrls1_1.averagePower           609.345008                       # Core power per rank (mW)
system.mem_ctrls1_1.totalIdleTime         12400737500                       # Total Idle time Per DRAM Rank
system.mem_ctrls1_1.memoryStateTime::IDLE     14825500                       # Time in different power states
system.mem_ctrls1_1.memoryStateTime::REF    533382000                       # Time in different power states
system.mem_ctrls1_1.memoryStateTime::SREF     80493750                       # Time in different power states
system.mem_ctrls1_1.memoryStateTime::PRE_PDN    572033250                       # Time in different power states
system.mem_ctrls1_1.memoryStateTime::ACT   3021976500                       # Time in different power states
system.mem_ctrls1_1.memoryStateTime::ACT_PDN  11748210500                       # Time in different power states
system.mem_ctrls2.pwrStateResidencyTicks::UNDEFINED  15970921500                       # Cumulative time (in ticks) in various power states
system.mem_ctrls2.bytes_read::ruby.dir_cntrl2     10203840                       # Number of bytes read from this memory
system.mem_ctrls2.bytes_read::total          10203840                       # Number of bytes read from this memory
system.mem_ctrls2.bytes_written::ruby.dir_cntrl2      1136896                       # Number of bytes written to this memory
system.mem_ctrls2.bytes_written::total        1136896                       # Number of bytes written to this memory
system.mem_ctrls2.num_reads::ruby.dir_cntrl2       159435                       # Number of read requests responded to by this memory
system.mem_ctrls2.num_reads::total             159435                       # Number of read requests responded to by this memory
system.mem_ctrls2.num_writes::ruby.dir_cntrl2        17764                       # Number of write requests responded to by this memory
system.mem_ctrls2.num_writes::total             17764                       # Number of write requests responded to by this memory
system.mem_ctrls2.bw_read::ruby.dir_cntrl2    638901143                       # Total read bandwidth from this memory (bytes/s)
system.mem_ctrls2.bw_read::total            638901143                       # Total read bandwidth from this memory (bytes/s)
system.mem_ctrls2.bw_write::ruby.dir_cntrl2     71185373                       # Write bandwidth from this memory (bytes/s)
system.mem_ctrls2.bw_write::total            71185373                       # Write bandwidth from this memory (bytes/s)
system.mem_ctrls2.bw_total::ruby.dir_cntrl2    710086516                       # Total bandwidth to/from this memory (bytes/s)
system.mem_ctrls2.bw_total::total           710086516                       # Total bandwidth to/from this memory (bytes/s)
system.mem_ctrls2.readReqs                     159435                       # Number of read requests accepted
system.mem_ctrls2.avgNetLat                      0.00                       # Average network latency to DRAM controller
system.mem_ctrls2.writeReqs                     17764                       # Number of write requests accepted
system.mem_ctrls2.readBursts                   159435                       # Number of DRAM read bursts, including those serviced by the write queue
system.mem_ctrls2.writeBursts                   17764                       # Number of DRAM write bursts, including those merged in the write queue
system.mem_ctrls2.bytesReadDRAM              10203456                       # Total number of bytes read from DRAM
system.mem_ctrls2.bytesReadWrQ                    384                       # Total number of bytes read from write queue
system.mem_ctrls2.bytesWritten                1135808                       # Total number of bytes written to DRAM
system.mem_ctrls2.bytesReadSys               10203840                       # Total read bytes from the system interface side
system.mem_ctrls2.bytesWrittenSys             1136896                       # Total written bytes from the system interface side
system.mem_ctrls2.servicedByWrQ                     6                       # Number of DRAM read bursts serviced by the write queue
system.mem_ctrls2.mergedWrBursts                    0                       # Number of DRAM write bursts merged with an existing one
system.mem_ctrls2.neitherReadNorWriteReqs            0                       # Number of requests that are neither read nor write
system.mem_ctrls2.perBankRdBursts::0             9837                       # Per bank write bursts
system.mem_ctrls2.perBankRdBursts::1             9374                       # Per bank write bursts
system.mem_ctrls2.perBankRdBursts::2             9791                       # Per bank write bursts
system.mem_ctrls2.perBankRdBursts::3             9820                       # Per bank write bursts
system.mem_ctrls2.perBankRdBursts::4             9370                       # Per bank write bursts
system.mem_ctrls2.perBankRdBursts::5             9290                       # Per bank write bursts
system.mem_ctrls2.perBankRdBursts::6             9722                       # Per bank write bursts
system.mem_ctrls2.perBankRdBursts::7             9803                       # Per bank write bursts
system.mem_ctrls2.perBankRdBursts::8            10095                       # Per bank write bursts
system.mem_ctrls2.perBankRdBursts::9            10532                       # Per bank write bursts
system.mem_ctrls2.perBankRdBursts::10           10825                       # Per bank write bursts
system.mem_ctrls2.perBankRdBursts::11           10451                       # Per bank write bursts
system.mem_ctrls2.perBankRdBursts::12           10706                       # Per bank write bursts
system.mem_ctrls2.perBankRdBursts::13           10602                       # Per bank write bursts
system.mem_ctrls2.perBankRdBursts::14            9660                       # Per bank write bursts
system.mem_ctrls2.perBankRdBursts::15            9551                       # Per bank write bursts
system.mem_ctrls2.perBankWrBursts::0              980                       # Per bank write bursts
system.mem_ctrls2.perBankWrBursts::1              894                       # Per bank write bursts
system.mem_ctrls2.perBankWrBursts::2             1081                       # Per bank write bursts
system.mem_ctrls2.perBankWrBursts::3             1116                       # Per bank write bursts
system.mem_ctrls2.perBankWrBursts::4              946                       # Per bank write bursts
system.mem_ctrls2.perBankWrBursts::5              998                       # Per bank write bursts
system.mem_ctrls2.perBankWrBursts::6             1114                       # Per bank write bursts
system.mem_ctrls2.perBankWrBursts::7             1126                       # Per bank write bursts
system.mem_ctrls2.perBankWrBursts::8             1203                       # Per bank write bursts
system.mem_ctrls2.perBankWrBursts::9             1274                       # Per bank write bursts
system.mem_ctrls2.perBankWrBursts::10            1283                       # Per bank write bursts
system.mem_ctrls2.perBankWrBursts::11            1264                       # Per bank write bursts
system.mem_ctrls2.perBankWrBursts::12            1374                       # Per bank write bursts
system.mem_ctrls2.perBankWrBursts::13            1336                       # Per bank write bursts
system.mem_ctrls2.perBankWrBursts::14             916                       # Per bank write bursts
system.mem_ctrls2.perBankWrBursts::15             842                       # Per bank write bursts
system.mem_ctrls2.numRdRetry                        0                       # Number of times read queue was full causing retry
system.mem_ctrls2.numWrRetry                        0                       # Number of times write queue was full causing retry
system.mem_ctrls2.totGap                  15969984000                       # Total gap between requests
system.mem_ctrls2.readPktSize::0                    0                       # Read request sizes (log2)
system.mem_ctrls2.readPktSize::1                    0                       # Read request sizes (log2)
system.mem_ctrls2.readPktSize::2                    0                       # Read request sizes (log2)
system.mem_ctrls2.readPktSize::3                    0                       # Read request sizes (log2)
system.mem_ctrls2.readPktSize::4                    0                       # Read request sizes (log2)
system.mem_ctrls2.readPktSize::5                    0                       # Read request sizes (log2)
system.mem_ctrls2.readPktSize::6               159435                       # Read request sizes (log2)
system.mem_ctrls2.writePktSize::0                   0                       # Write request sizes (log2)
system.mem_ctrls2.writePktSize::1                   0                       # Write request sizes (log2)
system.mem_ctrls2.writePktSize::2                   0                       # Write request sizes (log2)
system.mem_ctrls2.writePktSize::3                   0                       # Write request sizes (log2)
system.mem_ctrls2.writePktSize::4                   0                       # Write request sizes (log2)
system.mem_ctrls2.writePktSize::5                   0                       # Write request sizes (log2)
system.mem_ctrls2.writePktSize::6               17764                       # Write request sizes (log2)
system.mem_ctrls2.rdQLenPdf::0                  79594                       # What read queue length does an incoming req see
system.mem_ctrls2.rdQLenPdf::1                  43766                       # What read queue length does an incoming req see
system.mem_ctrls2.rdQLenPdf::2                  21558                       # What read queue length does an incoming req see
system.mem_ctrls2.rdQLenPdf::3                   9355                       # What read queue length does an incoming req see
system.mem_ctrls2.rdQLenPdf::4                   3516                       # What read queue length does an incoming req see
system.mem_ctrls2.rdQLenPdf::5                   1168                       # What read queue length does an incoming req see
system.mem_ctrls2.rdQLenPdf::6                    347                       # What read queue length does an incoming req see
system.mem_ctrls2.rdQLenPdf::7                    102                       # What read queue length does an incoming req see
system.mem_ctrls2.rdQLenPdf::8                     19                       # What read queue length does an incoming req see
system.mem_ctrls2.rdQLenPdf::9                      3                       # What read queue length does an incoming req see
system.mem_ctrls2.rdQLenPdf::10                     1                       # What read queue length does an incoming req see
system.mem_ctrls2.rdQLenPdf::11                     0                       # What read queue length does an incoming req see
system.mem_ctrls2.rdQLenPdf::12                     0                       # What read queue length does an incoming req see
system.mem_ctrls2.rdQLenPdf::13                     0                       # What read queue length does an incoming req see
system.mem_ctrls2.rdQLenPdf::14                     0                       # What read queue length does an incoming req see
system.mem_ctrls2.rdQLenPdf::15                     0                       # What read queue length does an incoming req see
system.mem_ctrls2.rdQLenPdf::16                     0                       # What read queue length does an incoming req see
system.mem_ctrls2.rdQLenPdf::17                     0                       # What read queue length does an incoming req see
system.mem_ctrls2.rdQLenPdf::18                     0                       # What read queue length does an incoming req see
system.mem_ctrls2.rdQLenPdf::19                     0                       # What read queue length does an incoming req see
system.mem_ctrls2.rdQLenPdf::20                     0                       # What read queue length does an incoming req see
system.mem_ctrls2.rdQLenPdf::21                     0                       # What read queue length does an incoming req see
system.mem_ctrls2.rdQLenPdf::22                     0                       # What read queue length does an incoming req see
system.mem_ctrls2.rdQLenPdf::23                     0                       # What read queue length does an incoming req see
system.mem_ctrls2.rdQLenPdf::24                     0                       # What read queue length does an incoming req see
system.mem_ctrls2.rdQLenPdf::25                     0                       # What read queue length does an incoming req see
system.mem_ctrls2.rdQLenPdf::26                     0                       # What read queue length does an incoming req see
system.mem_ctrls2.rdQLenPdf::27                     0                       # What read queue length does an incoming req see
system.mem_ctrls2.rdQLenPdf::28                     0                       # What read queue length does an incoming req see
system.mem_ctrls2.rdQLenPdf::29                     0                       # What read queue length does an incoming req see
system.mem_ctrls2.rdQLenPdf::30                     0                       # What read queue length does an incoming req see
system.mem_ctrls2.rdQLenPdf::31                     0                       # What read queue length does an incoming req see
system.mem_ctrls2.wrQLenPdf::0                      1                       # What write queue length does an incoming req see
system.mem_ctrls2.wrQLenPdf::1                      1                       # What write queue length does an incoming req see
system.mem_ctrls2.wrQLenPdf::2                      1                       # What write queue length does an incoming req see
system.mem_ctrls2.wrQLenPdf::3                      1                       # What write queue length does an incoming req see
system.mem_ctrls2.wrQLenPdf::4                      1                       # What write queue length does an incoming req see
system.mem_ctrls2.wrQLenPdf::5                      1                       # What write queue length does an incoming req see
system.mem_ctrls2.wrQLenPdf::6                      1                       # What write queue length does an incoming req see
system.mem_ctrls2.wrQLenPdf::7                      1                       # What write queue length does an incoming req see
system.mem_ctrls2.wrQLenPdf::8                      1                       # What write queue length does an incoming req see
system.mem_ctrls2.wrQLenPdf::9                      1                       # What write queue length does an incoming req see
system.mem_ctrls2.wrQLenPdf::10                     1                       # What write queue length does an incoming req see
system.mem_ctrls2.wrQLenPdf::11                     1                       # What write queue length does an incoming req see
system.mem_ctrls2.wrQLenPdf::12                     1                       # What write queue length does an incoming req see
system.mem_ctrls2.wrQLenPdf::13                     1                       # What write queue length does an incoming req see
system.mem_ctrls2.wrQLenPdf::14                     1                       # What write queue length does an incoming req see
system.mem_ctrls2.wrQLenPdf::15                   299                       # What write queue length does an incoming req see
system.mem_ctrls2.wrQLenPdf::16                   346                       # What write queue length does an incoming req see
system.mem_ctrls2.wrQLenPdf::17                   739                       # What write queue length does an incoming req see
system.mem_ctrls2.wrQLenPdf::18                  1025                       # What write queue length does an incoming req see
system.mem_ctrls2.wrQLenPdf::19                  1094                       # What write queue length does an incoming req see
system.mem_ctrls2.wrQLenPdf::20                  1106                       # What write queue length does an incoming req see
system.mem_ctrls2.wrQLenPdf::21                  1090                       # What write queue length does an incoming req see
system.mem_ctrls2.wrQLenPdf::22                  1105                       # What write queue length does an incoming req see
[...]
system.ruby.L2Cache_Controller.SS.L2_Replacement_clean |         557      6.18%      6.18% |         604      6.70%     12.88% |         605      6.71%     19.60% |         511      5.67%     25.27% |         571      6.34%     31.61% |         612      6.79%     38.40% |         584      6.48%     44.88% |         559      6.20%     51.08% |         612      6.79%     57.87% |         472      5.24%     63.11% |         505      5.60%     68.72% |         565      6.27%     74.99% |         544      6.04%     81.02% |         563      6.25%     87.27% |         620      6.88%     94.15% |         527      5.85%    100.00%
system.ruby.L2Cache_Controller.SS.L2_Replacement_clean::total         9011                      
system.ruby.L2Cache_Controller.M.L1_GET_INSTR |          14     25.00%     25.00% |           0      0.00%     25.00% |           0      0.00%     25.00% |           0      0.00%     25.00% |           0      0.00%     25.00% |           0      0.00%     25.00% |           0      0.00%     25.00% |           0      0.00%     25.00% |          14     25.00%     50.00% |          14     25.00%     75.00% |           0      0.00%     75.00% |           0      0.00%     75.00% |           0      0.00%     75.00% |           0      0.00%     75.00% |          14     25.00%    100.00% |           0      0.00%    100.00%
system.ruby.L2Cache_Controller.M.L1_GET_INSTR::total           56                      
system.ruby.L2Cache_Controller.M.L1_GETS |       10250      6.20%      6.20% |       10469      6.34%     12.54% |       10250      6.20%     18.74% |       10449      6.32%     25.07% |       10103      6.11%     31.18% |        9912      6.00%     37.18% |       10023      6.07%     43.25% |       10279      6.22%     49.47% |       10238      6.20%     55.67% |       10019      6.06%     61.73% |       10312      6.24%     67.97% |       11121      6.73%     74.70% |       10641      6.44%     81.14% |       10761      6.51%     87.66% |       10662      6.45%     94.11% |        9730      5.89%    100.00%
system.ruby.L2Cache_Controller.M.L1_GETS::total       165219                      
system.ruby.L2Cache_Controller.M.L1_GETX |        1263      6.16%      6.16% |        1349      6.58%     12.74% |        1408      6.87%     19.61% |        1434      7.00%     26.61% |        1289      6.29%     32.90% |        1200      5.86%     38.76% |        1188      5.80%     44.55% |        1359      6.63%     51.18% |        1249      6.09%     57.28% |        1300      6.34%     63.62% |        1267      6.18%     69.80% |        1236      6.03%     75.83% |        1228      5.99%     81.82% |        1143      5.58%     87.40% |        1257      6.13%     93.54% |        1325      6.46%    100.00%
system.ruby.L2Cache_Controller.M.L1_GETX::total        20495                      
system.ruby.L2Cache_Controller.M.L2_Replacement |        4473      6.35%      6.35% |        4381      6.22%     12.56% |        4371      6.20%     18.77% |        4423      6.28%     25.04% |        4276      6.07%     31.11% |        4380      6.21%     37.32% |        4346      6.17%     43.49% |        4387      6.22%     49.72% |        4503      6.39%     56.11% |        4317      6.13%     62.23% |        4371      6.20%     68.43% |        4356      6.18%     74.61% |        4434      6.29%     80.91% |        4447      6.31%     87.22% |        4569      6.48%     93.70% |        4441      6.30%    100.00%
system.ruby.L2Cache_Controller.M.L2_Replacement::total        70475                      
system.ruby.L2Cache_Controller.M.L2_Replacement_clean |        3112      6.26%      6.26% |        3017      6.07%     12.33% |        2963      5.96%     18.30% |        3129      6.30%     24.59% |        3020      6.08%     30.67% |        3086      6.21%     36.88% |        3129      6.30%     43.18% |        3121      6.28%     49.46% |        3167      6.37%     55.83% |        3064      6.17%     62.00% |        3114      6.27%     68.27% |        3118      6.27%     74.54% |        3179      6.40%     80.94% |        3175      6.39%     87.33% |        3120      6.28%     93.61% |        3177      6.39%    100.00%
system.ruby.L2Cache_Controller.M.L2_Replacement_clean::total        49691                      
system.ruby.L2Cache_Controller.MT.L1_GETS |          70      3.95%      3.95% |          70      3.95%      7.89% |          98      5.52%     13.42% |          98      5.52%     18.94% |          98      5.52%     24.46% |         140      7.89%     32.36% |         140      7.89%     40.25% |         140      7.89%     48.14% |         140      7.89%     56.03% |         140      7.89%     63.92% |         140      7.89%     71.82% |         136      7.67%     79.48% |         112      6.31%     85.79% |         112      6.31%     92.11% |          70      3.95%     96.05% |          70      3.95%    100.00%
system.ruby.L2Cache_Controller.MT.L1_GETS::total         1774                      
system.ruby.L2Cache_Controller.MT.L1_GETX |           0      0.00%      0.00% |           0      0.00%      0.00% |           0      0.00%      0.00% |           0      0.00%      0.00% |           0      0.00%      0.00% |           0      0.00%      0.00% |           0      0.00%      0.00% |           0      0.00%      0.00% |           0      0.00%      0.00% |           0      0.00%      0.00% |           0      0.00%      0.00% |           2    100.00%    100.00% |           0      0.00%    100.00% |           0      0.00%    100.00% |           0      0.00%    100.00% |           0      0.00%    100.00%
system.ruby.L2Cache_Controller.MT.L1_GETX::total            2                      
system.ruby.L2Cache_Controller.MT.L1_PUTX |       49175      6.25%      6.25% |       49272      6.26%     12.51% |       48927      6.22%     18.72% |       49531      6.29%     25.01% |       48731      6.19%     31.20% |       48646      6.18%     37.38% |       48836      6.20%     43.59% |       49255      6.26%     49.84% |       49257      6.26%     56.10% |       48780      6.20%     62.30% |       49151      6.24%     68.54% |       49973      6.35%     74.89% |       49687      6.31%     81.20% |       49684      6.31%     87.51% |       49596      6.30%     93.81% |       48721      6.19%    100.00%
system.ruby.L2Cache_Controller.MT.L1_PUTX::total       787222                      
system.ruby.L2Cache_Controller.MT.L2_Replacement |           7      8.43%      8.43% |           8      9.64%     18.07% |           7      8.43%     26.51% |           6      7.23%     33.73% |           7      8.43%     42.17% |           7      8.43%     50.60% |           6      7.23%     57.83% |           5      6.02%     63.86% |           7      8.43%     72.29% |           2      2.41%     74.70% |           6      7.23%     81.93% |           5      6.02%     87.95% |           3      3.61%     91.57% |           2      2.41%     93.98% |           3      3.61%     97.59% |           2      2.41%    100.00%
system.ruby.L2Cache_Controller.MT.L2_Replacement::total           83                      
system.ruby.L2Cache_Controller.MT.L2_Replacement_clean |          26      7.28%      7.28% |          24      6.72%     14.01% |          12      3.36%     17.37% |          21      5.88%     23.25% |          28      7.84%     31.09% |          21      5.88%     36.97% |          23      6.44%     43.42% |          20      5.60%     49.02% |          18      5.04%     54.06% |          20      5.60%     59.66% |          23      6.44%     66.11% |          23      6.44%     72.55% |          33      9.24%     81.79% |          25      7.00%     88.80% |          19      5.32%     94.12% |          21      5.88%    100.00%
system.ruby.L2Cache_Controller.MT.L2_Replacement_clean::total          357                      
system.ruby.L2Cache_Controller.M_I.Mem_Ack |        8177      6.31%      6.31% |        8037      6.20%     12.50% |        7959      6.14%     18.64% |        8092      6.24%     24.88% |        7902      6.09%     30.98% |        8108      6.25%     37.23% |        8092      6.24%     43.47% |        8096      6.24%     49.72% |        8310      6.41%     56.12% |        7877      6.07%     62.20% |        8025      6.19%     68.39% |        8070      6.22%     74.61% |        8200      6.32%     80.94% |        8216      6.34%     87.27% |        8332      6.43%     93.70% |        8172      6.30%    100.00%
system.ruby.L2Cache_Controller.M_I.Mem_Ack::total       129665                      
system.ruby.L2Cache_Controller.MT_I.WB_Data |           2      5.71%      5.71% |           6     17.14%     22.86% |           5     14.29%     37.14% |           3      8.57%     45.71% |           2      5.71%     51.43% |           2      5.71%     57.14% |           2      5.71%     62.86% |           1      2.86%     65.71% |           2      5.71%     71.43% |           1      2.86%     74.29% |           2      5.71%     80.00% |           2      5.71%     85.71% |           2      5.71%     91.43% |           0      0.00%     91.43% |           1      2.86%     94.29% |           2      5.71%    100.00%
system.ruby.L2Cache_Controller.MT_I.WB_Data::total           35                      
system.ruby.L2Cache_Controller.MT_I.Ack_all |           5     10.42%     10.42% |           2      4.17%     14.58% |           2      4.17%     18.75% |           3      6.25%     25.00% |           5     10.42%     35.42% |           5     10.42%     45.83% |           4      8.33%     54.17% |           4      8.33%     62.50% |           5     10.42%     72.92% |           1      2.08%     75.00% |           4      8.33%     83.33% |           3      6.25%     89.58% |           1      2.08%     91.67% |           2      4.17%     95.83% |           2      4.17%    100.00% |           0      0.00%    100.00%
system.ruby.L2Cache_Controller.MT_I.Ack_all::total           48                      
system.ruby.L2Cache_Controller.MCT_I.WB_Data |          24      7.41%      7.41% |          23      7.10%     14.51% |          12      3.70%     18.21% |          19      5.86%     24.07% |          24      7.41%     31.48% |          20      6.17%     37.65% |          21      6.48%     44.14% |          17      5.25%     49.38% |          15      4.63%     54.01% |          18      5.56%     59.57% |          22      6.79%     66.36% |          20      6.17%     72.53% |          29      8.95%     81.48% |          22      6.79%     88.27% |          18      5.56%     93.83% |          20      6.17%    100.00%
system.ruby.L2Cache_Controller.MCT_I.WB_Data::total          324                      
system.ruby.L2Cache_Controller.MCT_I.Ack_all |           2      6.06%      6.06% |           1      3.03%      9.09% |           0      0.00%      9.09% |           2      6.06%     15.15% |           4     12.12%     27.27% |           1      3.03%     30.30% |           2      6.06%     36.36% |           3      9.09%     45.45% |           3      9.09%     54.55% |           2      6.06%     60.61% |           1      3.03%     63.64% |           3      9.09%     72.73% |           4     12.12%     84.85% |           3      9.09%     93.94% |           1      3.03%     96.97% |           1      3.03%    100.00%
system.ruby.L2Cache_Controller.MCT_I.Ack_all::total           33                      
system.ruby.L2Cache_Controller.I_I.Ack_all |         557      6.18%      6.18% |         604      6.70%     12.88% |         605      6.71%     19.60% |         511      5.67%     25.27% |         571      6.34%     31.61% |         612      6.79%     38.40% |         584      6.48%     44.88% |         559      6.20%     51.08% |         612      6.79%     57.87% |         472      5.24%     63.11% |         505      5.60%     68.72% |         565      6.27%     74.99% |         544      6.04%     81.02% |         563      6.25%     87.27% |         620      6.88%     94.15% |         527      5.85%    100.00%
system.ruby.L2Cache_Controller.I_I.Ack_all::total         9011                      
system.ruby.L2Cache_Controller.S_I.Ack   |           2      4.17%      4.17% |           3      6.25%     10.42% |           1      2.08%     12.50% |           2      4.17%     16.67% |           0      0.00%     16.67% |           2      4.17%     20.83% |           4      8.33%     29.17% |           4      8.33%     37.50% |           3      6.25%     43.75% |           2      4.17%     47.92% |           6     12.50%     60.42% |           3      6.25%     66.67% |           7     14.58%     81.25% |           4      8.33%     89.58% |           1      2.08%     91.67% |           4      8.33%    100.00%
system.ruby.L2Cache_Controller.S_I.Ack::total           48                      
system.ruby.L2Cache_Controller.S_I.Ack_all |           2      4.17%      4.17% |           3      6.25%     10.42% |           1      2.08%     12.50% |           2      4.17%     16.67% |           0      0.00%     16.67% |           2      4.17%     20.83% |           4      8.33%     29.17% |           4      8.33%     37.50% |           3      6.25%     43.75% |           2      4.17%     47.92% |           6     12.50%     60.42% |           3      6.25%     66.67% |           7     14.58%     81.25% |           4      8.33%     89.58% |           1      2.08%     91.67% |           4      8.33%    100.00%
system.ruby.L2Cache_Controller.S_I.Ack_all::total           48                      
system.ruby.L2Cache_Controller.ISS.Mem_Data |       29048      6.27%      6.27% |       28757      6.21%     12.48% |       28542      6.16%     18.64% |       28966      6.25%     24.89% |       28655      6.19%     31.08% |       28873      6.23%     37.31% |       28972      6.25%     43.57% |       28964      6.25%     49.82% |       29152      6.29%     56.11% |       28884      6.24%     62.35% |       28953      6.25%     68.60% |       29035      6.27%     74.87% |       29226      6.31%     81.18% |       29141      6.29%     87.47% |       29027      6.27%     93.73% |       29024      6.27%    100.00%
system.ruby.L2Cache_Controller.ISS.Mem_Data::total       463219                      
system.ruby.L2Cache_Controller.IS.Mem_Data |        1357      6.40%      6.40% |        1364      6.43%     12.82% |        1495      7.05%     19.87% |        1291      6.08%     25.95% |        1351      6.37%     32.32% |        1341      6.32%     38.64% |        1283      6.05%     44.69% |        1296      6.11%     50.80% |        1365      6.43%     57.23% |        1171      5.52%     62.75% |        1248      5.88%     68.63% |        1266      5.97%     74.60% |        1232      5.81%     80.40% |        1300      6.13%     86.53% |        1518      7.15%     93.68% |        1340      6.32%    100.00%
system.ruby.L2Cache_Controller.IS.Mem_Data::total        21218                      
system.ruby.L2Cache_Controller.IM.Mem_Data |        9538      6.22%      6.22% |        9621      6.28%     12.50% |        9649      6.29%     18.79% |        9620      6.28%     25.07% |        9619      6.27%     31.34% |        9613      6.27%     37.61% |        9605      6.27%     43.88% |        9602      6.26%     50.14% |        9556      6.23%     56.38% |        9527      6.21%     62.59% |        9569      6.24%     68.84% |        9533      6.22%     75.05% |        9528      6.22%     81.27% |        9574      6.25%     87.52% |        9574      6.25%     93.76% |        9564      6.24%    100.00%
system.ruby.L2Cache_Controller.IM.Mem_Data::total       153292                      
system.ruby.L2Cache_Controller.SS_MB.Exclusive_Unblock |          42      3.91%      3.91% |          42      3.91%      7.81% |          69      6.42%     14.23% |          56      5.21%     19.44% |          56      5.21%     24.65% |          84      7.81%     32.47% |          84      7.81%     40.28% |          84      7.81%     48.09% |          84      7.81%     55.91% |          84      7.81%     63.72% |          84      7.81%     71.53% |          82      7.63%     79.16% |          70      6.51%     85.67% |          70      6.51%     92.19% |          42      3.91%     96.09% |          42      3.91%    100.00%
system.ruby.L2Cache_Controller.SS_MB.Exclusive_Unblock::total         1075                      
system.ruby.L2Cache_Controller.MT_MB.Exclusive_Unblock |       50099      6.24%      6.24% |       50196      6.26%     12.50% |       49849      6.21%     18.72% |       50469      6.29%     25.01% |       49666      6.19%     31.20% |       49598      6.18%     37.38% |       49788      6.21%     43.59% |       50204      6.26%     49.84% |       50195      6.26%     56.10% |       49730      6.20%     62.30% |       50101      6.25%     68.55% |       50927      6.35%     74.89% |       50623      6.31%     81.20% |       50619      6.31%     87.51% |       50520      6.30%     93.81% |       49643      6.19%    100.00%
system.ruby.L2Cache_Controller.MT_MB.Exclusive_Unblock::total       802227                      
system.ruby.L2Cache_Controller.MT_IIB.WB_Data |          70      3.98%      3.98% |          70      3.98%      7.97% |          97      5.52%     13.49% |          97      5.52%     19.01% |          97      5.52%     24.53% |         139      7.91%     32.44% |         138      7.85%     40.30% |         138      7.85%     48.15% |         139      7.91%     56.06% |         138      7.85%     63.92% |         139      7.91%     71.83% |         135      7.68%     79.51% |         110      6.26%     85.77% |         111      6.32%     92.09% |          69      3.93%     96.02% |          70      3.98%    100.00%
system.ruby.L2Cache_Controller.MT_IIB.WB_Data::total         1757                      
system.ruby.L2Cache_Controller.MT_IIB.Unblock |           0      0.00%      0.00% |           0      0.00%      0.00% |           1      5.88%      5.88% |           1      5.88%     11.76% |           1      5.88%     17.65% |           1      5.88%     23.53% |           2     11.76%     35.29% |           2     11.76%     47.06% |           1      5.88%     52.94% |           2     11.76%     64.71% |           1      5.88%     70.59% |           1      5.88%     76.47% |           2     11.76%     88.24% |           1      5.88%     94.12% |           1      5.88%    100.00% |           0      0.00%    100.00%
system.ruby.L2Cache_Controller.MT_IIB.Unblock::total           17                      
system.ruby.L2Cache_Controller.MT_IB.WB_Data |           0      0.00%      0.00% |           0      0.00%      0.00% |           1      5.88%      5.88% |           1      5.88%     11.76% |           1      5.88%     17.65% |           1      5.88%     23.53% |           2     11.76%     35.29% |           2     11.76%     47.06% |           1      5.88%     52.94% |           2     11.76%     64.71% |           1      5.88%     70.59% |           1      5.88%     76.47% |           2     11.76%     88.24% |           1      5.88%     94.12% |           1      5.88%    100.00% |           0      0.00%    100.00%
system.ruby.L2Cache_Controller.MT_IB.WB_Data::total           17                      
system.ruby.L2Cache_Controller.MT_SB.Unblock |          70      3.98%      3.98% |          70      3.98%      7.97% |          97      5.52%     13.49% |          97      5.52%     19.01% |          97      5.52%     24.53% |         139      7.91%     32.44% |         138      7.85%     40.30% |         138      7.85%     48.15% |         139      7.91%     56.06% |         138      7.85%     63.92% |         139      7.91%     71.83% |         135      7.68%     79.51% |         110      6.26%     85.77% |         111      6.32%     92.09% |          69      3.93%     96.02% |          70      3.98%    100.00%
system.ruby.L2Cache_Controller.MT_SB.Unblock::total         1757                      

---------- End Simulation Statistics   ----------
