
---------- Begin Simulation Statistics ----------
sim_seconds                                  0.013343                       # Number of seconds simulated
sim_ticks                                 13342995500                       # Number of ticks simulated
final_tick                                13342995500                       # Number of ticks from beginning of simulation (restored from checkpoints and never reset)
sim_freq                                 1000000000000                       # Frequency of simulated ticks
host_inst_rate                                  34591                       # Simulator instruction rate (inst/s)
host_op_rate                                    60419                       # Simulator op (including micro ops) rate (op/s)
host_tick_rate                               10915407                       # Simulator tick rate (ticks/s)
host_mem_usage                                1757672                       # Number of bytes of host memory used
host_seconds                                  1222.40                       # Real time elapsed on the host
sim_insts                                    42284562                       # Number of instructions simulated
sim_ops                                      73855773                       # Number of ops (including micro ops) simulated
system.voltage_domain.voltage                       1                       # Voltage in Volts
system.clk_domain.clock                          1000                       # Clock period in ticks
system.mem_ctrls0.pwrStateResidencyTicks::UNDEFINED  13342995500                       # Cumulative time (in ticks) in various power states
system.mem_ctrls0.bytes_read::ruby.dir_cntrl0      8550464                       # Number of bytes read from this memory
system.mem_ctrls0.bytes_read::total           8550464                       # Number of bytes read from this memory
system.mem_ctrls0.bytes_written::ruby.dir_cntrl0      1271552                       # Number of bytes written to this memory
system.mem_ctrls0.bytes_written::total        1271552                       # Number of bytes written to this memory
system.mem_ctrls0.num_reads::ruby.dir_cntrl0       133601                       # Number of read requests responded to by this memory
system.mem_ctrls0.num_reads::total             133601                       # Number of read requests responded to by this memory
system.mem_ctrls0.num_writes::ruby.dir_cntrl0        19868                       # Number of write requests responded to by this memory
system.mem_ctrls0.num_writes::total             19868                       # Number of write requests responded to by this memory
system.mem_ctrls0.bw_read::ruby.dir_cntrl0    640820421                       # Total read bandwidth from this memory (bytes/s)
system.mem_ctrls0.bw_read::total            640820421                       # Total read bandwidth from this memory (bytes/s)
system.mem_ctrls0.bw_write::ruby.dir_cntrl0     95297342                       # Write bandwidth from this memory (bytes/s)
system.mem_ctrls0.bw_write::total            95297342                       # Write bandwidth from this memory (bytes/s)
system.mem_ctrls0.bw_total::ruby.dir_cntrl0    736117763                       # Total bandwidth to/from this memory (bytes/s)
system.mem_ctrls0.bw_total::total           736117763                       # Total bandwidth to/from this memory (bytes/s)
system.mem_ctrls0.readReqs                     133601                       # Number of read requests accepted
system.mem_ctrls0.avgNetLat                      0.00                       # Average network latency to DRAM controller
system.mem_ctrls0.writeReqs                     19868                       # Number of write requests accepted
system.mem_ctrls0.readBursts                   133601                       # Number of DRAM read bursts, including those serviced by the write queue
system.mem_ctrls0.writeBursts                   19868                       # Number of DRAM write bursts, including those merged in the write queue
system.mem_ctrls0.bytesReadDRAM               8550208                       # Total number of bytes read from DRAM
system.mem_ctrls0.bytesReadWrQ                    256                       # Total number of bytes read from write queue
system.mem_ctrls0.bytesWritten                1269824                       # Total number of bytes written to DRAM
system.mem_ctrls0.bytesReadSys                8550464                       # Total read bytes from the system interface side
system.mem_ctrls0.bytesWrittenSys             1271552                       # Total written bytes from the system interface side
system.mem_ctrls0.servicedByWrQ                     4                       # Number of DRAM read bursts serviced by the write queue
system.mem_ctrls0.mergedWrBursts                    0                       # Number of DRAM write bursts merged with an existing one
system.mem_ctrls0.neitherReadNorWriteReqs            0                       # Number of requests that are neither read nor write
system.mem_ctrls0.perBankRdBursts::0             8306                       # Per bank write bursts
system.mem_ctrls0.perBankRdBursts::1             8107                       # Per bank write bursts
system.mem_ctrls0.perBankRdBursts::2             8248                       # Per bank write bursts
system.mem_ctrls0.perBankRdBursts::3             8345                       # Per bank write bursts
system.mem_ctrls0.perBankRdBursts::4             8019                       # Per bank write bursts
system.mem_ctrls0.perBankRdBursts::5             7901                       # Per bank write bursts
system.mem_ctrls0.perBankRdBursts::6             8072                       # Per bank write bursts
system.mem_ctrls0.perBankRdBursts::7             8257                       # Per bank write bursts
system.mem_ctrls0.perBankRdBursts::8             8190                       # Per bank write bursts
system.mem_ctrls0.perBankRdBursts::9             8515                       # Per bank write bursts
system.mem_ctrls0.perBankRdBursts::10            9050                       # Per bank write bursts
system.mem_ctrls0.perBankRdBursts::11            8530                       # Per bank write bursts
system.mem_ctrls0.perBankRdBursts::12            8961                       # Per bank write bursts
system.mem_ctrls0.perBankRdBursts::13            9081                       # Per bank write bursts
system.mem_ctrls0.perBankRdBursts::14            7912                       # Per bank write bursts
system.mem_ctrls0.perBankRdBursts::15            8103                       # Per bank write bursts
system.mem_ctrls0.perBankWrBursts::0             1341                       # Per bank write bursts
system.mem_ctrls0.perBankWrBursts::1             1270                       # Per bank write bursts
system.mem_ctrls0.perBankWrBursts::2             1273                       # Per bank write bursts
system.mem_ctrls0.perBankWrBursts::3             1313                       # Per bank write bursts
system.mem_ctrls0.perBankWrBursts::4             1306                       # Per bank write bursts
system.mem_ctrls0.perBankWrBursts::5             1257                       # Per bank write bursts
system.mem_ctrls0.perBankWrBursts::6             1240                       # Per bank write bursts
system.mem_ctrls0.perBankWrBursts::7             1206                       # Per bank write bursts
system.mem_ctrls0.perBankWrBursts::8             1193                       # Per bank write bursts
system.mem_ctrls0.perBankWrBursts::9             1180                       # Per bank write bursts
system.mem_ctrls0.perBankWrBursts::10            1132                       # Per bank write bursts
system.mem_ctrls0.perBankWrBursts::11            1102                       # Per bank write bursts
system.mem_ctrls0.perBankWrBursts::12            1234                       # Per bank write bursts
system.mem_ctrls0.perBankWrBursts::13            1329                       # Per bank write bursts
system.mem_ctrls0.perBankWrBursts::14            1213                       # Per bank write bursts
system.mem_ctrls0.perBankWrBursts::15            1252                       # Per bank write bursts
system.mem_ctrls0.numRdRetry                        0                       # Number of times read queue was full causing retry
system.mem_ctrls0.numWrRetry                        0                       # Number of times write queue was full causing retry
system.mem_ctrls0.totGap                  13342014500                       # Total gap between requests
system.mem_ctrls0.readPktSize::0                    0                       # Read request sizes (log2)
system.mem_ctrls0.readPktSize::1                    0                       # Read request sizes (log2)
system.mem_ctrls0.readPktSize::2                    0                       # Read request sizes (log2)
system.mem_ctrls0.readPktSize::3                    0                       # Read request sizes (log2)
system.mem_ctrls0.readPktSize::4                    0                       # Read request sizes (log2)
system.mem_ctrls0.readPktSize::5                    0                       # Read request sizes (log2)
system.mem_ctrls0.readPktSize::6               133601                       # Read request sizes (log2)
system.mem_ctrls0.writePktSize::0                   0                       # Write request sizes (log2)
system.mem_ctrls0.writePktSize::1                   0                       # Write request sizes (log2)
system.mem_ctrls0.writePktSize::2                   0                       # Write request sizes (log2)
system.mem_ctrls0.writePktSize::3                   0                       # Write request sizes (log2)
system.mem_ctrls0.writePktSize::4                   0                       # Write request sizes (log2)
system.mem_ctrls0.writePktSize::5                   0                       # Write request sizes (log2)
system.mem_ctrls0.writePktSize::6               19868                       # Write request sizes (log2)
system.mem_ctrls0.rdQLenPdf::0                  64383                       # What read queue length does an incoming req see
system.mem_ctrls0.rdQLenPdf::1                  33965                       # What read queue length does an incoming req see
system.mem_ctrls0.rdQLenPdf::2                  17625                       # What read queue length does an incoming req see
system.mem_ctrls0.rdQLenPdf::3                   9419                       # What read queue length does an incoming req see
system.mem_ctrls0.rdQLenPdf::4                   4619                       # What read queue length does an incoming req see
system.mem_ctrls0.rdQLenPdf::5                   2173                       # What read queue length does an incoming req see
system.mem_ctrls0.rdQLenPdf::6                    918                       # What read queue length does an incoming req see
system.mem_ctrls0.rdQLenPdf::7                    340                       # What read queue length does an incoming req see
system.mem_ctrls0.rdQLenPdf::8                    114                       # What read queue length does an incoming req see
system.mem_ctrls0.rdQLenPdf::9                     28                       # What read queue length does an incoming req see
system.mem_ctrls0.rdQLenPdf::10                    10                       # What read queue length does an incoming req see
system.mem_ctrls0.rdQLenPdf::11                     2                       # What read queue length does an incoming req see
system.mem_ctrls0.rdQLenPdf::12                     1                       # What read queue length does an incoming req see
system.mem_ctrls0.rdQLenPdf::13                     0                       # What read queue length does an incoming req see
system.mem_ctrls0.rdQLenPdf::14                     0                       # What read queue length does an incoming req see
system.mem_ctrls0.rdQLenPdf::15                     0                       # What read queue length does an incoming req see
system.mem_ctrls0.rdQLenPdf::16                     0                       # What read queue length does an incoming req see
system.mem_ctrls0.rdQLenPdf::17                     0                       # What read queue length does an incoming req see
system.mem_ctrls0.rdQLenPdf::18                     0                       # What read queue length does an incoming req see
system.mem_ctrls0.rdQLenPdf::19                     0                       # What read queue length does an incoming req see
system.mem_ctrls0.rdQLenPdf::20                     0                       # What read queue length does an incoming req see
system.mem_ctrls0.rdQLenPdf::21                     0                       # What read queue length does an incoming req see
system.mem_ctrls0.rdQLenPdf::22                     0                       # What read queue length does an incoming req see
system.mem_ctrls0.rdQLenPdf::23                     0                       # What read queue length does an incoming req see
system.mem_ctrls0.rdQLenPdf::24                     0                       # What read queue length does an incoming req see
system.mem_ctrls0.rdQLenPdf::25                     0                       # What read queue length does an incoming req see
system.mem_ctrls0.rdQLenPdf::26                     0                       # What read queue length does an incoming req see
system.mem_ctrls0.rdQLenPdf::27                     0                       # What read queue length does an incoming req see
system.mem_ctrls0.rdQLenPdf::28                     0                       # What read queue length does an incoming req see
system.mem_ctrls0.rdQLenPdf::29                     0                       # What read queue length does an incoming req see
system.mem_ctrls0.rdQLenPdf::30                     0                       # What read queue length does an incoming req see
system.mem_ctrls0.rdQLenPdf::31                     0                       # What read queue length does an incoming req see
system.mem_ctrls0.wrQLenPdf::0                      1                       # What write queue length does an incoming req see
system.mem_ctrls0.wrQLenPdf::1                      1                       # What write queue length does an incoming req see
system.mem_ctrls0.wrQLenPdf::2                      1                       # What write queue length does an incoming req see
system.mem_ctrls0.wrQLenPdf::3                      1                       # What write queue length does an incoming req see
system.mem_ctrls0.wrQLenPdf::4                      1                       # What write queue length does an incoming req see
system.mem_ctrls0.wrQLenPdf::5                      1                       # What write queue length does an incoming req see
system.mem_ctrls0.wrQLenPdf::6                      1                       # What write queue length does an incoming req see
system.mem_ctrls0.wrQLenPdf::7                      1                       # What write queue length does an incoming req see
system.mem_ctrls0.wrQLenPdf::8                      1                       # What write queue length does an incoming req see
system.mem_ctrls0.wrQLenPdf::9                      1                       # What write queue length does an incoming req see
system.mem_ctrls0.wrQLenPdf::10                     1                       # What write queue length does an incoming req see
system.mem_ctrls0.wrQLenPdf::11                     1                       # What write queue length does an incoming req see
system.mem_ctrls0.wrQLenPdf::12                     1                       # What write queue length does an incoming req see
system.mem_ctrls0.wrQLenPdf::13                     1                       # What write queue length does an incoming req see
system.mem_ctrls0.wrQLenPdf::14                     1                       # What write queue length does an incoming req see
system.mem_ctrls0.wrQLenPdf::15                   385                       # What write queue length does an incoming req see
system.mem_ctrls0.wrQLenPdf::16                   444                       # What write queue length does an incoming req see
system.mem_ctrls0.wrQLenPdf::17                   807                       # What write queue length does an incoming req see
system.mem_ctrls0.wrQLenPdf::18                  1145                       # What write queue length does an incoming req see
system.mem_ctrls0.wrQLenPdf::19                  1223                       # What write queue length does an incoming req see
system.mem_ctrls0.wrQLenPdf::20                  1223                       # What write queue length does an incoming req see
system.mem_ctrls0.wrQLenPdf::21                  1229                       # What write queue length does an incoming req see
system.mem_ctrls0.wrQLenPdf::22                  1228                       # What write queue length does an incoming req see
system.mem_ctrls0.wrQLenPdf::23                  1226                       # What write queue length does an incoming req see
system.mem_ctrls0.wrQLenPdf::24                  1221                       # What write queue length does an incoming req see
system.mem_ctrls0.wrQLenPdf::25                  1218                       # What write queue length does an incoming req see
system.mem_ctrls0.wrQLenPdf::26                  1231                       # What write queue length does an incoming req see
system.mem_ctrls0.wrQLenPdf::27                  1217                       # What write queue length does an incoming req see
system.mem_ctrls0.wrQLenPdf::28                  1218                       # What write queue length does an incoming req see
system.mem_ctrls0.wrQLenPdf::29                  1227                       # What write queue length does an incoming req see
system.mem_ctrls0.wrQLenPdf::30                  1208                       # What write queue length does an incoming req see
system.mem_ctrls0.wrQLenPdf::31                  1192                       # What write queue length does an incoming req see
system.mem_ctrls0.wrQLenPdf::32                  1187                       # What write queue length does an incoming req see
system.mem_ctrls0.wrQLenPdf::33                    20                       # What write queue length does an incoming req see
system.mem_ctrls0.wrQLenPdf::34                     4                       # What write queue length does an incoming req see
system.mem_ctrls0.wrQLenPdf::35                     0                       # What write queue length does an incoming req see
system.mem_ctrls0.wrQLenPdf::36                     0                       # What write queue length does an incoming req see
system.mem_ctrls0.wrQLenPdf::37                     0                       # What write queue length does an incoming req see
system.mem_ctrls0.wrQLenPdf::38                     0                       # What write queue length does an incoming req see
system.mem_ctrls0.wrQLenPdf::39                     0                       # What write queue length does an incoming req see
system.mem_ctrls0.wrQLenPdf::40                     0                       # What write queue length does an incoming req see
system.mem_ctrls0.wrQLenPdf::41                     0                       # What write queue length does an incoming req see
system.mem_ctrls0.wrQLenPdf::42                     0                       # What write queue length does an incoming req see
system.mem_ctrls0.wrQLenPdf::43                     0                       # What write queue length does an incoming req see
system.mem_ctrls0.wrQLenPdf::44                     0                       # What write queue length does an incoming req see
system.mem_ctrls0.wrQLenPdf::45                     0                       # What write queue length does an incoming req see
system.mem_ctrls0.wrQLenPdf::46                     0                       # What write queue length does an incoming req see
system.mem_ctrls0.wrQLenPdf::47                     0                       # What write queue length does an incoming req see
system.mem_ctrls0.wrQLenPdf::48                     0                       # What write queue length does an incoming req see
system.mem_ctrls0.wrQLenPdf::49                     0                       # What write queue length does an incoming req see
system.mem_ctrls0.wrQLenPdf::50                     0                       # What write queue length does an incoming req see
system.mem_ctrls0.wrQLenPdf::51                     0                       # What write queue length does an incoming req see
system.mem_ctrls0.wrQLenPdf::52                     0                       # What write queue length does an incoming req see
system.mem_ctrls0.wrQLenPdf::53                     0                       # What write queue length does an incoming req see
system.mem_ctrls0.wrQLenPdf::54                     0                       # What write queue length does an incoming req see
system.mem_ctrls0.wrQLenPdf::55                     0                       # What write queue length does an incoming req see
system.mem_ctrls0.wrQLenPdf::56                     0                       # What write queue length does an incoming req see
system.mem_ctrls0.wrQLenPdf::57                     0                       # What write queue length does an incoming req see
system.mem_ctrls0.wrQLenPdf::58                     0                       # What write queue length does an incoming req see
system.mem_ctrls0.wrQLenPdf::59                     0                       # What write queue length does an incoming req see
system.mem_ctrls0.wrQLenPdf::60                     0                       # What write queue length does an incoming req see
system.mem_ctrls0.wrQLenPdf::61                     0                       # What write queue length does an incoming req see
system.mem_ctrls0.wrQLenPdf::62                     0                       # What write queue length does an incoming req see
system.mem_ctrls0.wrQLenPdf::63                     0                       # What write queue length does an incoming req see
system.mem_ctrls0.bytesPerActivate::samples        85283                       # Bytes accessed per row activation
system.mem_ctrls0.bytesPerActivate::mean   115.136663                       # Bytes accessed per row activation
system.mem_ctrls0.bytesPerActivate::gmean    88.357014                       # Bytes accessed per row activation
system.mem_ctrls0.bytesPerActivate::stdev   129.396818                       # Bytes accessed per row activation
system.mem_ctrls0.bytesPerActivate::0-127        60992     71.52%     71.52% # Bytes accessed per row activation
system.mem_ctrls0.bytesPerActivate::128-255        16170     18.96%     90.48% # Bytes accessed per row activation
system.mem_ctrls0.bytesPerActivate::256-383         3256      3.82%     94.30% # Bytes accessed per row activation
system.mem_ctrls0.bytesPerActivate::384-511         1788      2.10%     96.39% # Bytes accessed per row activation
system.mem_ctrls0.bytesPerActivate::512-639         1160      1.36%     97.75% # Bytes accessed per row activation
system.mem_ctrls0.bytesPerActivate::640-767         1334      1.56%     99.32% # Bytes accessed per row activation
system.mem_ctrls0.bytesPerActivate::768-895          113      0.13%     99.45% # Bytes accessed per row activation
system.mem_ctrls0.bytesPerActivate::896-1023           87      0.10%     99.55% # Bytes accessed per row activation
system.mem_ctrls0.bytesPerActivate::1024-1151          383      0.45%    100.00% # Bytes accessed per row activation
system.mem_ctrls0.bytesPerActivate::total        85283                       # Bytes accessed per row activation
system.mem_ctrls0.rdPerTurnAround::samples         1183                       # Reads before turning the bus around for writes
system.mem_ctrls0.rdPerTurnAround::mean    112.919696                       # Reads before turning the bus around for writes
system.mem_ctrls0.rdPerTurnAround::gmean    33.799343                       # Reads before turning the bus around for writes
system.mem_ctrls0.rdPerTurnAround::stdev  1918.864014                       # Reads before turning the bus around for writes
system.mem_ctrls0.rdPerTurnAround::0-4095         1182     99.92%     99.92% # Reads before turning the bus around for writes
system.mem_ctrls0.rdPerTurnAround::65536-69631            1      0.08%    100.00% # Reads before turning the bus around for writes
system.mem_ctrls0.rdPerTurnAround::total         1183                       # Reads before turning the bus around for writes
system.mem_ctrls0.wrPerTurnAround::samples         1183                       # Writes before turning the bus around for reads
system.mem_ctrls0.wrPerTurnAround::mean     16.771767                       # Writes before turning the bus around for reads
system.mem_ctrls0.wrPerTurnAround::gmean    16.740910                       # Writes before turning the bus around for reads
system.mem_ctrls0.wrPerTurnAround::stdev     1.035077                       # Writes before turning the bus around for reads
system.mem_ctrls0.wrPerTurnAround::16             728     61.54%     61.54% # Writes before turning the bus around for reads
system.mem_ctrls0.wrPerTurnAround::17              54      4.56%     66.10% # Writes before turning the bus around for reads
system.mem_ctrls0.wrPerTurnAround::18             351     29.67%     95.77% # Writes before turning the bus around for reads
system.mem_ctrls0.wrPerTurnAround::19              47      3.97%     99.75% # Writes before turning the bus around for reads
system.mem_ctrls0.wrPerTurnAround::20               1      0.08%     99.83% # Writes before turning the bus around for reads
system.mem_ctrls0.wrPerTurnAround::21               1      0.08%     99.92% # Writes before turning the bus around for reads
system.mem_ctrls0.wrPerTurnAround::23               1      0.08%    100.00% # Writes before turning the bus around for reads
system.mem_ctrls0.wrPerTurnAround::total         1183                       # Writes before turning the bus around for reads
system.mem_ctrls0.totQLat                  3835806000                       # Total ticks spent queuing
system.mem_ctrls0.totMemAccLat             6340749750                       # Total ticks spent from burst creation until serviced by the DRAM
system.mem_ctrls0.totBusLat                 667985000                       # Total ticks spent in databus transfers
system.mem_ctrls0.avgQLat                    28711.77                       # Average queueing delay per DRAM burst
system.mem_ctrls0.avgBusLat                   5000.00                       # Average bus latency per DRAM burst
system.mem_ctrls0.avgMemAccLat               47461.77                       # Average memory access latency per DRAM burst
system.mem_ctrls0.avgRdBW                      640.80                       # Average DRAM read bandwidth in MiByte/s
system.mem_ctrls0.avgWrBW                       95.17                       # Average achieved write bandwidth in MiByte/s
system.mem_ctrls0.avgRdBWSys                   640.82                       # Average system read bandwidth in MiByte/s
system.mem_ctrls0.avgWrBWSys                    95.30                       # Average system write bandwidth in MiByte/s
system.mem_ctrls0.peakBW                     12800.00                       # Theoretical peak bandwidth in MiByte/s
system.mem_ctrls0.busUtil                        5.75                       # Data bus utilization in percentage
system.mem_ctrls0.busUtilRead                    5.01                       # Data bus utilization in percentage for reads
system.mem_ctrls0.busUtilWrite                   0.74                       # Data bus utilization in percentage for writes
system.mem_ctrls0.avgRdQLen                      1.57                       # Average read queue length when enqueuing
system.mem_ctrls0.avgWrQLen                     10.69                       # Average write queue length when enqueuing
system.mem_ctrls0.readRowHits                   62048                       # Number of row buffer hits during reads
system.mem_ctrls0.writeRowHits                   6100                       # Number of row buffer hits during writes
system.mem_ctrls0.readRowHitRate                46.44                       # Row buffer hit rate for reads
system.mem_ctrls0.writeRowHitRate               30.70                       # Row buffer hit rate for writes
system.mem_ctrls0.avgGap                     86936.22                       # Average gap between requests
system.mem_ctrls0.pageHitRate                   44.41                       # Row buffer hit rate, read and write combined
system.mem_ctrls0_0.actEnergy               297909360                       # Energy for activate commands per rank (pJ)
system.mem_ctrls0_0.preEnergy               158331195                       # Energy for precharge commands per rank (pJ)
system.mem_ctrls0_0.readEnergy              465920700                       # Energy for read commands per rank (pJ)
system.mem_ctrls0_0.writeEnergy              53275320                       # Energy for write commands per rank (pJ)
system.mem_ctrls0_0.refreshEnergy        1062097920.000000                       # Energy for refresh commands per rank (pJ)
system.mem_ctrls0_0.actBackEnergy          1357580400                       # Energy for active background per rank (pJ)
system.mem_ctrls0_0.preBackEnergy            26858880                       # Energy for precharge background per rank (pJ)
system.mem_ctrls0_0.actPowerDownEnergy     4318432860                       # Energy for active power-down per rank (pJ)
system.mem_ctrls0_0.prePowerDownEnergy      294684960                       # Energy for precharge power-down per rank (pJ)
system.mem_ctrls0_0.selfRefreshEnergy        27320175                       # Energy for self refresh per rank (pJ)
system.mem_ctrls0_0.totalEnergy            8062711860                       # Total energy per rank (pJ)
system.mem_ctrls0_0.averagePower           604.265467                       # Core power per rank (mW)
system.mem_ctrls0_0.totalIdleTime         10294979000                       # Total Idle time Per DRAM Rank
system.mem_ctrls0_0.memoryStateTime::IDLE     16002250                       # Time in different power states
system.mem_ctrls0_0.memoryStateTime::REF    449430000                       # Time in different power states
system.mem_ctrls0_0.memoryStateTime::SREF     57581000                       # Time in different power states
system.mem_ctrls0_0.memoryStateTime::PRE_PDN    767199000                       # Time in different power states
system.mem_ctrls0_0.memoryStateTime::ACT   2581692000                       # Time in different power states
system.mem_ctrls0_0.memoryStateTime::ACT_PDN   9471091250                       # Time in different power states
system.mem_ctrls0_1.actEnergy               311061240                       # Energy for activate commands per rank (pJ)
system.mem_ctrls0_1.preEnergy               165317790                       # Energy for precharge commands per rank (pJ)
system.mem_ctrls0_1.readEnergy              487961880                       # Energy for read commands per rank (pJ)
system.mem_ctrls0_1.writeEnergy              50294700                       # Energy for write commands per rank (pJ)
system.mem_ctrls0_1.refreshEnergy        1056566160.000000                       # Energy for refresh commands per rank (pJ)
system.mem_ctrls0_1.actBackEnergy          1431008370                       # Energy for active background per rank (pJ)
system.mem_ctrls0_1.preBackEnergy            26289600                       # Energy for precharge background per rank (pJ)
system.mem_ctrls0_1.actPowerDownEnergy     4253729880                       # Energy for active power-down per rank (pJ)
system.mem_ctrls0_1.prePowerDownEnergy      278928000                       # Energy for precharge power-down per rank (pJ)
system.mem_ctrls0_1.selfRefreshEnergy        29589330                       # Energy for self refresh per rank (pJ)
system.mem_ctrls0_1.totalEnergy            8090827620                       # Total energy per rank (pJ)
system.mem_ctrls0_1.averagePower           606.372622                       # Core power per rank (mW)
system.mem_ctrls0_1.totalIdleTime         10132033250                       # Total Idle time Per DRAM Rank
system.mem_ctrls0_1.memoryStateTime::IDLE     14546000                       # Time in different power states
system.mem_ctrls0_1.memoryStateTime::REF    447054000                       # Time in different power states
system.mem_ctrls0_1.memoryStateTime::SREF     81449000                       # Time in different power states
system.mem_ctrls0_1.memoryStateTime::PRE_PDN    726190000                       # Time in different power states
system.mem_ctrls0_1.memoryStateTime::ACT   2744794500                       # Time in different power states
system.mem_ctrls0_1.memoryStateTime::ACT_PDN   9328962000                       # Time in different power states
system.mem_ctrls1.pwrStateResidencyTicks::UNDEFINED  13342995500                       # Cumulative time (in ticks) in various power states
system.mem_ctrls1.bytes_read::ruby.dir_cntrl1      8624832                       # Number of bytes read from this memory
system.mem_ctrls1.bytes_read::total           8624832                       # Number of bytes read from this memory
system.mem_ctrls1.bytes_written::ruby.dir_cntrl1      1294848                       # Number of bytes written to this memory
system.mem_ctrls1.bytes_written::total        1294848                       # Number of bytes written to this memory
system.mem_ctrls1.num_reads::ruby.dir_cntrl1       134763                       # Number of read requests responded to by this memory
system.mem_ctrls1.num_reads::total             134763                       # Number of read requests responded to by this memory
system.mem_ctrls1.num_writes::ruby.dir_cntrl1        20232                       # Number of write requests responded to by this memory
system.mem_ctrls1.num_writes::total             20232                       # Number of write requests responded to by this memory
system.mem_ctrls1.bw_read::ruby.dir_cntrl1    646393983                       # Total read bandwidth from this memory (bytes/s)
system.mem_ctrls1.bw_read::total            646393983                       # Total read bandwidth from this memory (bytes/s)
system.mem_ctrls1.bw_write::ruby.dir_cntrl1     97043276                       # Write bandwidth from this memory (bytes/s)
system.mem_ctrls1.bw_write::total            97043276                       # Write bandwidth from this memory (bytes/s)
system.mem_ctrls1.bw_total::ruby.dir_cntrl1    743437259                       # Total bandwidth to/from this memory (bytes/s)
system.mem_ctrls1.bw_total::total           743437259                       # Total bandwidth to/from this memory (bytes/s)
system.mem_ctrls1.readReqs                     134763                       # Number of read requests accepted
system.mem_ctrls1.avgNetLat                      0.00                       # Average network latency to DRAM controller
system.mem_ctrls1.writeReqs                     20232                       # Number of write requests accepted
system.mem_ctrls1.readBursts                   134763                       # Number of DRAM read bursts, including those serviced by the write queue
system.mem_ctrls1.writeBursts                   20232                       # Number of DRAM write bursts, including those merged in the write queue
system.mem_ctrls1.bytesReadDRAM               8624000                       # Total number of bytes read from DRAM
system.mem_ctrls1.bytesReadWrQ                    832                       # Total number of bytes read from write queue
system.mem_ctrls1.bytesWritten                1293504                       # Total number of bytes written to DRAM
system.mem_ctrls1.bytesReadSys                8624832                       # Total read bytes from the system interface side
system.mem_ctrls1.bytesWrittenSys             1294848                       # Total written bytes from the system interface side
system.mem_ctrls1.servicedByWrQ                    13                       # Number of DRAM read bursts serviced by the write queue
system.mem_ctrls1.mergedWrBursts                    0                       # Number of DRAM write bursts merged with an existing one
system.mem_ctrls1.neitherReadNorWriteReqs            0                       # Number of requests that are neither read nor write
system.mem_ctrls1.perBankRdBursts::0             8316                       # Per bank write bursts
system.mem_ctrls1.perBankRdBursts::1             8168                       # Per bank write bursts
system.mem_ctrls1.perBankRdBursts::2             8353                       # Per bank write bursts
system.mem_ctrls1.perBankRdBursts::3             8418                       # Per bank write bursts
system.mem_ctrls1.perBankRdBursts::4             8092                       # Per bank write bursts
system.mem_ctrls1.perBankRdBursts::5             8008                       # Per bank write bursts
system.mem_ctrls1.perBankRdBursts::6             8129                       # Per bank write bursts
system.mem_ctrls1.perBankRdBursts::7             8326                       # Per bank write bursts
system.mem_ctrls1.perBankRdBursts::8             8264                       # Per bank write bursts
system.mem_ctrls1.perBankRdBursts::9             8569                       # Per bank write bursts
system.mem_ctrls1.perBankRdBursts::10            9114                       # Per bank write bursts
system.mem_ctrls1.perBankRdBursts::11            8652                       # Per bank write bursts
system.mem_ctrls1.perBankRdBursts::12            9025                       # Per bank write bursts
system.mem_ctrls1.perBankRdBursts::13            9147                       # Per bank write bursts
system.mem_ctrls1.perBankRdBursts::14            7980                       # Per bank write bursts
system.mem_ctrls1.perBankRdBursts::15            8189                       # Per bank write bursts
system.mem_ctrls1.perBankWrBursts::0             1329                       # Per bank write bursts
system.mem_ctrls1.perBankWrBursts::1             1292                       # Per bank write bursts
system.mem_ctrls1.perBankWrBursts::2             1283                       # Per bank write bursts
system.mem_ctrls1.perBankWrBursts::3             1317                       # Per bank write bursts
system.mem_ctrls1.perBankWrBursts::4             1308                       # Per bank write bursts
system.mem_ctrls1.perBankWrBursts::5             1279                       # Per bank write bursts
system.mem_ctrls1.perBankWrBursts::6             1284                       # Per bank write bursts
system.mem_ctrls1.perBankWrBursts::7             1215                       # Per bank write bursts
system.mem_ctrls1.perBankWrBursts::8             1213                       # Per bank write bursts
system.mem_ctrls1.perBankWrBursts::9             1178                       # Per bank write bursts
system.mem_ctrls1.perBankWrBursts::10            1151                       # Per bank write bursts
system.mem_ctrls1.perBankWrBursts::11            1146                       # Per bank write bursts
system.mem_ctrls1.perBankWrBursts::12            1295                       # Per bank write bursts
system.mem_ctrls1.perBankWrBursts::13            1401                       # Per bank write bursts
system.mem_ctrls1.perBankWrBursts::14            1235                       # Per bank write bursts
system.mem_ctrls1.perBankWrBursts::15            1285                       # Per bank write bursts
system.mem_ctrls1.numRdRetry                        0                       # Number of times read queue was full causing retry
system.mem_ctrls1.numWrRetry                        0                       # Number of times write queue was full causing retry
system.mem_ctrls1.totGap                  13342594500                       # Total gap between requests
system.mem_ctrls1.readPktSize::0                    0                       # Read request sizes (log2)
system.mem_ctrls1.readPktSize::1                    0                       # Read request sizes (log2)
system.mem_ctrls1.readPktSize::2                    0                       # Read request sizes (log2)
system.mem_ctrls1.readPktSize::3                    0                       # Read request sizes (log2)
system.mem_ctrls1.readPktSize::4                    0                       # Read request sizes (log2)
system.mem_ctrls1.readPktSize::5                    0                       # Read request sizes (log2)
system.mem_ctrls1.readPktSize::6               134763                       # Read request sizes (log2)
system.mem_ctrls1.writePktSize::0                   0                       # Write request sizes (log2)
system.mem_ctrls1.writePktSize::1                   0                       # Write request sizes (log2)
system.mem_ctrls1.writePktSize::2                   0                       # Write request sizes (log2)
system.mem_ctrls1.writePktSize::3                   0                       # Write request sizes (log2)
system.mem_ctrls1.writePktSize::4                   0                       # Write request sizes (log2)
system.mem_ctrls1.writePktSize::5                   0                       # Write request sizes (log2)
system.mem_ctrls1.writePktSize::6               20232                       # Write request sizes (log2)
system.mem_ctrls1.rdQLenPdf::0                  64883                       # What read queue length does an incoming req see
system.mem_ctrls1.rdQLenPdf::1                  34206                       # What read queue length does an incoming req see
system.mem_ctrls1.rdQLenPdf::2                  17751                       # What read queue length does an incoming req see
system.mem_ctrls1.rdQLenPdf::3                   9510                       # What read queue length does an incoming req see
system.mem_ctrls1.rdQLenPdf::4                   4707                       # What read queue length does an incoming req see
system.mem_ctrls1.rdQLenPdf::5                   2215                       # What read queue length does an incoming req see
system.mem_ctrls1.rdQLenPdf::6                    954                       # What read queue length does an incoming req see
system.mem_ctrls1.rdQLenPdf::7                    359                       # What read queue length does an incoming req see
system.mem_ctrls1.rdQLenPdf::8                    125                       # What read queue length does an incoming req see
system.mem_ctrls1.rdQLenPdf::9                     35                       # What read queue length does an incoming req see
system.mem_ctrls1.rdQLenPdf::10                     5                       # What read queue length does an incoming req see
system.mem_ctrls1.rdQLenPdf::11                     0                       # What read queue length does an incoming req see
system.mem_ctrls1.rdQLenPdf::12                     0                       # What read queue length does an incoming req see
system.mem_ctrls1.rdQLenPdf::13                     0                       # What read queue length does an incoming req see
system.mem_ctrls1.rdQLenPdf::14                     0                       # What read queue length does an incoming req see
system.mem_ctrls1.rdQLenPdf::15                     0                       # What read queue length does an incoming req see
system.mem_ctrls1.rdQLenPdf::16                     0                       # What read queue length does an incoming req see
system.mem_ctrls1.rdQLenPdf::17                     0                       # What read queue length does an incoming req see
system.mem_ctrls1.rdQLenPdf::18                     0                       # What read queue length does an incoming req see
system.mem_ctrls1.rdQLenPdf::19                     0                       # What read queue length does an incoming req see
system.mem_ctrls1.rdQLenPdf::20                     0                       # What read queue length does an incoming req see
system.mem_ctrls1.rdQLenPdf::21                     0                       # What read queue length does an incoming req see
system.mem_ctrls1.rdQLenPdf::22                     0                       # What read queue length does an incoming req see
system.mem_ctrls1.rdQLenPdf::23                     0                       # What read queue length does an incoming req see
system.mem_ctrls1.rdQLenPdf::24                     0                       # What read queue length does an incoming req see
system.mem_ctrls1.rdQLenPdf::25                     0                       # What read queue length does an incoming req see
system.mem_ctrls1.rdQLenPdf::26                     0                       # What read queue length does an incoming req see
system.mem_ctrls1.rdQLenPdf::27                     0                       # What read queue length does an incoming req see
system.mem_ctrls1.rdQLenPdf::28                     0                       # What read queue length does an incoming req see
system.mem_ctrls1.rdQLenPdf::29                     0                       # What read queue length does an incoming req see
system.mem_ctrls1.rdQLenPdf::30                     0                       # What read queue length does an incoming req see
system.mem_ctrls1.rdQLenPdf::31                     0                       # What read queue length does an incoming req see
system.mem_ctrls1.wrQLenPdf::0                      1                       # What write queue length does an incoming req see
system.mem_ctrls1.wrQLenPdf::1                      1                       # What write queue length does an incoming req see
system.mem_ctrls1.wrQLenPdf::2                      1                       # What write queue length does an incoming req see
system.mem_ctrls1.wrQLenPdf::3                      1                       # What write queue length does an incoming req see
system.mem_ctrls1.wrQLenPdf::4                      1                       # What write queue length does an incoming req see
system.mem_ctrls1.wrQLenPdf::5                      1                       # What write queue length does an incoming req see
system.mem_ctrls1.wrQLenPdf::6                      1                       # What write queue length does an incoming req see
system.mem_ctrls1.wrQLenPdf::7                      1                       # What write queue length does an incoming req see
system.mem_ctrls1.wrQLenPdf::8                      1                       # What write queue length does an incoming req see
system.mem_ctrls1.wrQLenPdf::9                      1                       # What write queue length does an incoming req see
system.mem_ctrls1.wrQLenPdf::10                     1                       # What write queue length does an incoming req see
system.mem_ctrls1.wrQLenPdf::11                     1                       # What write queue length does an incoming req see
system.mem_ctrls1.wrQLenPdf::12                     1                       # What write queue length does an incoming req see
system.mem_ctrls1.wrQLenPdf::13                     1                       # What write queue length does an incoming req see
system.mem_ctrls1.wrQLenPdf::14                     1                       # What write queue length does an incoming req see
system.mem_ctrls1.wrQLenPdf::15                   440                       # What write queue length does an incoming req see
system.mem_ctrls1.wrQLenPdf::16                   495                       # What write queue length does an incoming req see
system.mem_ctrls1.wrQLenPdf::17                   862                       # What write queue length does an incoming req see
system.mem_ctrls1.wrQLenPdf::18                  1149                       # What write queue length does an incoming req see
system.mem_ctrls1.wrQLenPdf::19                  1230                       # What write queue length does an incoming req see
system.mem_ctrls1.wrQLenPdf::20                  1232                       # What write queue length does an incoming req see
system.mem_ctrls1.wrQLenPdf::21                  1241                       # What write queue length does an incoming req see
system.mem_ctrls1.wrQLenPdf::22                  1240                       # What write queue length does an incoming req see
system.mem_ctrls1.wrQLenPdf::23                  1246                       # What write queue length does an incoming req see
system.mem_ctrls1.wrQLenPdf::24                  1230                       # What write queue length does an incoming req see
system.mem_ctrls1.wrQLenPdf::25                  1245                       # What write queue length does an incoming req see
system.mem_ctrls1.wrQLenPdf::26                  1222                       # What write queue length does an incoming req see
system.mem_ctrls1.wrQLenPdf::27                  1228                       # What write queue length does an incoming req see
system.mem_ctrls1.wrQLenPdf::28                  1247                       # What write queue length does an incoming req see
system.mem_ctrls1.wrQLenPdf::29                  1234                       # What write queue length does an incoming req see
system.mem_ctrls1.wrQLenPdf::30                  1236                       # What write queue length does an incoming req see
system.mem_ctrls1.wrQLenPdf::31                  1211                       # What write queue length does an incoming req see
system.mem_ctrls1.wrQLenPdf::32                  1203                       # What write queue length does an incoming req see
system.mem_ctrls1.wrQLenPdf::33                    20                       # What write queue length does an incoming req see
system.mem_ctrls1.wrQLenPdf::34                     5                       # What write queue length does an incoming req see
system.mem_ctrls1.wrQLenPdf::35                     1                       # What write queue length does an incoming req see
system.mem_ctrls1.wrQLenPdf::36                     0                       # What write queue length does an incoming req see
system.mem_ctrls1.wrQLenPdf::37                     0                       # What write queue length does an incoming req see
system.mem_ctrls1.wrQLenPdf::38                     0                       # What write queue length does an incoming req see
system.mem_ctrls1.wrQLenPdf::39                     0                       # What write queue length does an incoming req see
system.mem_ctrls1.wrQLenPdf::40                     0                       # What write queue length does an incoming req see
system.mem_ctrls1.wrQLenPdf::41                     0                       # What write queue length does an incoming req see
system.mem_ctrls1.wrQLenPdf::42                     0                       # What write queue length does an incoming req see
system.mem_ctrls1.wrQLenPdf::43                     0                       # What write queue length does an incoming req see
system.mem_ctrls1.wrQLenPdf::44                     0                       # What write queue length does an incoming req see
system.mem_ctrls1.wrQLenPdf::45                     0                       # What write queue length does an incoming req see
system.mem_ctrls1.wrQLenPdf::46                     0                       # What write queue length does an incoming req see
system.mem_ctrls1.wrQLenPdf::47                     0                       # What write queue length does an incoming req see
system.mem_ctrls1.wrQLenPdf::48                     0                       # What write queue length does an incoming req see
system.mem_ctrls1.wrQLenPdf::49                     0                       # What write queue length does an incoming req see
system.mem_ctrls1.wrQLenPdf::50                     0                       # What write queue length does an incoming req see
system.mem_ctrls1.wrQLenPdf::51                     0                       # What write queue length does an incoming req see
system.mem_ctrls1.wrQLenPdf::52                     0                       # What write queue length does an incoming req see
system.mem_ctrls1.wrQLenPdf::53                     0                       # What write queue length does an incoming req see
system.mem_ctrls1.wrQLenPdf::54                     0                       # What write queue length does an incoming req see
system.mem_ctrls1.wrQLenPdf::55                     0                       # What write queue length does an incoming req see
system.mem_ctrls1.wrQLenPdf::56                     0                       # What write queue length does an incoming req see
system.mem_ctrls1.wrQLenPdf::57                     0                       # What write queue length does an incoming req see
system.mem_ctrls1.wrQLenPdf::58                     0                       # What write queue length does an incoming req see
system.mem_ctrls1.wrQLenPdf::59                     0                       # What write queue length does an incoming req see
system.mem_ctrls1.wrQLenPdf::60                     0                       # What write queue length does an incoming req see
system.mem_ctrls1.wrQLenPdf::61                     0                       # What write queue length does an incoming req see
system.mem_ctrls1.wrQLenPdf::62                     0                       # What write queue length does an incoming req see
system.mem_ctrls1.wrQLenPdf::63                     0                       # What write queue length does an incoming req see
system.mem_ctrls1.bytesPerActivate::samples        87257                       # Bytes accessed per row activation
system.mem_ctrls1.bytesPerActivate::mean   113.653415                       # Bytes accessed per row activation
system.mem_ctrls1.bytesPerActivate::gmean    87.799883                       # Bytes accessed per row activation
system.mem_ctrls1.bytesPerActivate::stdev   126.498450                       # Bytes accessed per row activation
system.mem_ctrls1.bytesPerActivate::0-127        62678     71.83%     71.83% # Bytes accessed per row activation
system.mem_ctrls1.bytesPerActivate::128-255        16531     18.95%     90.78% # Bytes accessed per row activation
system.mem_ctrls1.bytesPerActivate::256-383         3237      3.71%     94.49% # Bytes accessed per row activation
system.mem_ctrls1.bytesPerActivate::384-511         1813      2.08%     96.56% # Bytes accessed per row activation
system.mem_ctrls1.bytesPerActivate::512-639         1190      1.36%     97.93% # Bytes accessed per row activation
system.mem_ctrls1.bytesPerActivate::640-767         1247      1.43%     99.36% # Bytes accessed per row activation
system.mem_ctrls1.bytesPerActivate::768-895          111      0.13%     99.48% # Bytes accessed per row activation
system.mem_ctrls1.bytesPerActivate::896-1023           88      0.10%     99.59% # Bytes accessed per row activation
system.mem_ctrls1.bytesPerActivate::1024-1151          362      0.41%    100.00% # Bytes accessed per row activation
system.mem_ctrls1.bytesPerActivate::total        87257                       # Bytes accessed per row activation
system.mem_ctrls1.rdPerTurnAround::samples         1198                       # Reads before turning the bus around for writes
system.mem_ctrls1.rdPerTurnAround::mean    112.479132                       # Reads before turning the bus around for writes
system.mem_ctrls1.rdPerTurnAround::gmean    33.513454                       # Reads before turning the bus around for writes
system.mem_ctrls1.rdPerTurnAround::stdev  1915.001133                       # Reads before turning the bus around for writes
system.mem_ctrls1.rdPerTurnAround::0-4095         1197     99.92%     99.92% # Reads before turning the bus around for writes
system.mem_ctrls1.rdPerTurnAround::65536-69631            1      0.08%    100.00% # Reads before turning the bus around for writes
system.mem_ctrls1.rdPerTurnAround::total         1198                       # Reads before turning the bus around for writes
system.mem_ctrls1.wrPerTurnAround::samples         1197                       # Writes before turning the bus around for reads
system.mem_ctrls1.wrPerTurnAround::mean     16.874687                       # Writes before turning the bus around for reads
system.mem_ctrls1.wrPerTurnAround::gmean    16.839777                       # Writes before turning the bus around for reads
system.mem_ctrls1.wrPerTurnAround::stdev     1.102294                       # Writes before turning the bus around for reads
system.mem_ctrls1.wrPerTurnAround::16             695     58.06%     58.06% # Writes before turning the bus around for reads
system.mem_ctrls1.wrPerTurnAround::17              55      4.59%     62.66% # Writes before turning the bus around for reads
system.mem_ctrls1.wrPerTurnAround::18             365     30.49%     93.15% # Writes before turning the bus around for reads
system.mem_ctrls1.wrPerTurnAround::19              68      5.68%     98.83% # Writes before turning the bus around for reads
system.mem_ctrls1.wrPerTurnAround::20              12      1.00%     99.83% # Writes before turning the bus around for reads
system.mem_ctrls1.wrPerTurnAround::21               2      0.17%    100.00% # Writes before turning the bus around for reads
system.mem_ctrls1.wrPerTurnAround::total         1197                       # Writes before turning the bus around for reads
system.mem_ctrls1.totQLat                  3869521250                       # Total ticks spent queuing
system.mem_ctrls1.totMemAccLat             6396083750                       # Total ticks spent from burst creation until serviced by the DRAM
system.mem_ctrls1.totBusLat                 673750000                       # Total ticks spent in databus transfers
system.mem_ctrls1.avgQLat                    28716.30                       # Average queueing delay per DRAM burst
system.mem_ctrls1.avgBusLat                   5000.00                       # Average bus latency per DRAM burst
system.mem_ctrls1.avgMemAccLat               47466.30                       # Average memory access latency per DRAM burst
system.mem_ctrls1.avgRdBW                      646.33                       # Average DRAM read bandwidth in MiByte/s
system.mem_ctrls1.avgWrBW                       96.94                       # Average achieved write bandwidth in MiByte/s
system.mem_ctrls1.avgRdBWSys                   646.39                       # Average system read bandwidth in MiByte/s
system.mem_ctrls1.avgWrBWSys                    97.04                       # Average system write bandwidth in MiByte/s
system.mem_ctrls1.peakBW                     12800.00                       # Theoretical peak bandwidth in MiByte/s
system.mem_ctrls1.busUtil                        5.81                       # Data bus utilization in percentage
system.mem_ctrls1.busUtilRead                    5.05                       # Data bus utilization in percentage for reads
system.mem_ctrls1.busUtilWrite                   0.76                       # Data bus utilization in percentage for writes
system.mem_ctrls1.avgRdQLen                      1.57                       # Average read queue length when enqueuing
system.mem_ctrls1.avgWrQLen                     10.61                       # Average write queue length when enqueuing
system.mem_ctrls1.readRowHits                   61598                       # Number of row buffer hits during reads
system.mem_ctrls1.writeRowHits                   6103                       # Number of row buffer hits during writes
system.mem_ctrls1.readRowHitRate                45.71                       # Row buffer hit rate for reads
system.mem_ctrls1.writeRowHitRate               30.17                       # Row buffer hit rate for writes
system.mem_ctrls1.avgGap                     86084.03                       # Average gap between requests
system.mem_ctrls1.pageHitRate                   43.68                       # Row buffer hit rate, read and write combined
system.mem_ctrls1_0.actEnergy               303692760                       # Energy for activate commands per rank (pJ)
system.mem_ctrls1_0.preEnergy               161401350                       # Energy for precharge commands per rank (pJ)
system.mem_ctrls1_0.readEnergy              469883400                       # Energy for read commands per rank (pJ)
system.mem_ctrls1_0.writeEnergy              53781660                       # Energy for write commands per rank (pJ)
system.mem_ctrls1_0.refreshEnergy        1054722240.000000                       # Energy for refresh commands per rank (pJ)
system.mem_ctrls1_0.actBackEnergy          1363655460                       # Energy for active background per rank (pJ)
system.mem_ctrls1_0.preBackEnergy            26564640                       # Energy for precharge background per rank (pJ)
system.mem_ctrls1_0.actPowerDownEnergy     4305135900                       # Energy for active power-down per rank (pJ)
system.mem_ctrls1_0.prePowerDownEnergy      291057120                       # Energy for precharge power-down per rank (pJ)
system.mem_ctrls1_0.selfRefreshEnergy        28543905                       # Energy for self refresh per rank (pJ)
system.mem_ctrls1_0.totalEnergy            8058525795                       # Total energy per rank (pJ)
system.mem_ctrls1_0.averagePower           603.951739                       # Core power per rank (mW)
system.mem_ctrls1_0.totalIdleTime         10283525250                       # Total Idle time Per DRAM Rank
system.mem_ctrls1_0.memoryStateTime::IDLE     14169500                       # Time in different power states
system.mem_ctrls1_0.memoryStateTime::REF    446262000                       # Time in different power states
system.mem_ctrls1_0.memoryStateTime::SREF     84099000                       # Time in different power states
system.mem_ctrls1_0.memoryStateTime::PRE_PDN    757723250                       # Time in different power states
system.mem_ctrls1_0.memoryStateTime::ACT   2599038750                       # Time in different power states
system.mem_ctrls1_0.memoryStateTime::ACT_PDN   9441703000                       # Time in different power states
system.mem_ctrls1_1.actEnergy               319336500                       # Energy for activate commands per rank (pJ)
system.mem_ctrls1_1.preEnergy               169708605                       # Energy for precharge commands per rank (pJ)
system.mem_ctrls1_1.readEnergy              492231600                       # Energy for read commands per rank (pJ)
system.mem_ctrls1_1.writeEnergy              51693660                       # Energy for write commands per rank (pJ)
system.mem_ctrls1_1.refreshEnergy        1057795440.000000                       # Energy for refresh commands per rank (pJ)
system.mem_ctrls1_1.actBackEnergy          1418710620                       # Energy for active background per rank (pJ)
system.mem_ctrls1_1.preBackEnergy            27116160                       # Energy for precharge background per rank (pJ)
system.mem_ctrls1_1.actPowerDownEnergy     4273601790                       # Energy for active power-down per rank (pJ)
system.mem_ctrls1_1.prePowerDownEnergy      263196000                       # Energy for precharge power-down per rank (pJ)
system.mem_ctrls1_1.selfRefreshEnergy        37680030                       # Energy for self refresh per rank (pJ)
system.mem_ctrls1_1.totalEnergy            8111207505                       # Total energy per rank (pJ)
system.mem_ctrls1_1.averagePower           607.900006                       # Core power per rank (mW)
system.mem_ctrls1_1.totalIdleTime         10161340250                       # Total Idle time Per DRAM Rank
system.mem_ctrls1_1.memoryStateTime::IDLE     16059750                       # Time in different power states
system.mem_ctrls1_1.memoryStateTime::REF    447610000                       # Time in different power states
system.mem_ctrls1_1.memoryStateTime::SREF    103527250                       # Time in different power states
system.mem_ctrls1_1.memoryStateTime::PRE_PDN    685193250                       # Time in different power states
system.mem_ctrls1_1.memoryStateTime::ACT   2717985500                       # Time in different power states
system.mem_ctrls1_1.memoryStateTime::ACT_PDN   9372619750                       # Time in different power states
system.mem_ctrls2.pwrStateResidencyTicks::UNDEFINED  13342995500                       # Cumulative time (in ticks) in various power states
system.mem_ctrls2.bytes_read::ruby.dir_cntrl2      8540160                       # Number of bytes read from this memory
system.mem_ctrls2.bytes_read::total           8540160                       # Number of bytes read from this memory
system.mem_ctrls2.bytes_written::ruby.dir_cntrl2      1272320                       # Number of bytes written to this memory
system.mem_ctrls2.bytes_written::total        1272320                       # Number of bytes written to this memory
system.mem_ctrls2.num_reads::ruby.dir_cntrl2       133440                       # Number of read requests responded to by this memory
system.mem_ctrls2.num_reads::total             133440                       # Number of read requests responded to by this memory
system.mem_ctrls2.num_writes::ruby.dir_cntrl2        19880                       # Number of write requests responded to by this memory
system.mem_ctrls2.num_writes::total             19880                       # Number of write requests responded to by this memory
system.mem_ctrls2.bw_read::ruby.dir_cntrl2    640048181                       # Total read bandwidth from this memory (bytes/s)
system.mem_ctrls2.bw_read::total            640048181                       # Total read bandwidth from this memory (bytes/s)
system.mem_ctrls2.bw_write::ruby.dir_cntrl2     95354900                       # Write bandwidth from this memory (bytes/s)
system.mem_ctrls2.bw_write::total            95354900                       # Write bandwidth from this memory (bytes/s)
system.mem_ctrls2.bw_total::ruby.dir_cntrl2    735403081                       # Total bandwidth to/from this memory (bytes/s)
system.mem_ctrls2.bw_total::total           735403081                       # Total bandwidth to/from this memory (bytes/s)
system.mem_ctrls2.readReqs                     133440                       # Number of read requests accepted
system.mem_ctrls2.avgNetLat                      0.00                       # Average network latency to DRAM controller
system.mem_ctrls2.writeReqs                     19880                       # Number of write requests accepted
system.mem_ctrls2.readBursts                   133440                       # Number of DRAM read bursts, including those serviced by the write queue
system.mem_ctrls2.writeBursts                   19880                       # Number of DRAM write bursts, including those merged in the write queue
system.mem_ctrls2.bytesReadDRAM               8539520                       # Total number of bytes read from DRAM
system.mem_ctrls2.bytesReadWrQ                    640                       # Total number of bytes read from write queue
system.mem_ctrls2.bytesWritten                1270592                       # Total number of bytes written to DRAM
system.mem_ctrls2.bytesReadSys                8540160                       # Total read bytes from the system interface side
system.mem_ctrls2.bytesWrittenSys             1272320                       # Total written bytes from the system interface side
system.mem_ctrls2.servicedByWrQ                    10                       # Number of DRAM read bursts serviced by the write queue
system.mem_ctrls2.mergedWrBursts                    0                       # Number of DRAM write bursts merged with an existing one
system.mem_ctrls2.neitherReadNorWriteReqs            0                       # Number of requests that are neither read nor write
system.mem_ctrls2.perBankRdBursts::0             8198                       # Per bank write bursts
system.mem_ctrls2.perBankRdBursts::1             8080                       # Per bank write bursts
system.mem_ctrls2.perBankRdBursts::2             8241                       # Per bank write bursts
system.mem_ctrls2.perBankRdBursts::3             8337                       # Per bank write bursts
system.mem_ctrls2.perBankRdBursts::4             8052                       # Per bank write bursts
system.mem_ctrls2.perBankRdBursts::5             7876                       # Per bank write bursts
system.mem_ctrls2.perBankRdBursts::6             8039                       # Per bank write bursts
system.mem_ctrls2.perBankRdBursts::7             8288                       # Per bank write bursts
system.mem_ctrls2.perBankRdBursts::8             8156                       # Per bank write bursts
system.mem_ctrls2.perBankRdBursts::9             8460                       # Per bank write bursts
system.mem_ctrls2.perBankRdBursts::10            9072                       # Per bank write bursts
system.mem_ctrls2.perBankRdBursts::11            8527                       # Per bank write bursts
system.mem_ctrls2.perBankRdBursts::12            8964                       # Per bank write bursts
system.mem_ctrls2.perBankRdBursts::13            9127                       # Per bank write bursts
system.mem_ctrls2.perBankRdBursts::14            7920                       # Per bank write bursts
system.mem_ctrls2.perBankRdBursts::15            8093                       # Per bank write bursts
system.mem_ctrls2.perBankWrBursts::0             1304                       # Per bank write bursts
system.mem_ctrls2.perBankWrBursts::1             1287                       # Per bank write bursts
system.mem_ctrls2.perBankWrBursts::2             1251                       # Per bank write bursts
system.mem_ctrls2.perBankWrBursts::3             1296                       # Per bank write bursts
system.mem_ctrls2.perBankWrBursts::4             1342                       # Per bank write bursts
system.mem_ctrls2.perBankWrBursts::5             1259                       # Per bank write bursts
system.mem_ctrls2.perBankWrBursts::6             1266                       # Per bank write bursts
system.mem_ctrls2.perBankWrBursts::7             1202                       # Per bank write bursts
system.mem_ctrls2.perBankWrBursts::8             1192                       # Per bank write bursts
system.mem_ctrls2.perBankWrBursts::9             1127                       # Per bank write bursts
system.mem_ctrls2.perBankWrBursts::10            1121                       # Per bank write bursts
system.mem_ctrls2.perBankWrBursts::11            1105                       # Per bank write bursts
system.mem_ctrls2.perBankWrBursts::12            1260                       # Per bank write bursts
system.mem_ctrls2.perBankWrBursts::13            1380                       # Per bank write bursts
system.mem_ctrls2.perBankWrBursts::14            1201                       # Per bank write bursts
system.mem_ctrls2.perBankWrBursts::15            1260                       # Per bank write bursts
system.mem_ctrls2.numRdRetry                        0                       # Number of times read queue was full causing retry
system.mem_ctrls2.numWrRetry                        0                       # Number of times write queue was full causing retry
system.mem_ctrls2.totGap                  13342164500                       # Total gap between requests
system.mem_ctrls2.readPktSize::0                    0                       # Read request sizes (log2)
system.mem_ctrls2.readPktSize::1                    0                       # Read request sizes (log2)
system.mem_ctrls2.readPktSize::2                    0                       # Read request sizes (log2)
system.mem_ctrls2.readPktSize::3                    0                       # Read request sizes (log2)
system.mem_ctrls2.readPktSize::4                    0                       # Read request sizes (log2)
system.mem_ctrls2.readPktSize::5                    0                       # Read request sizes (log2)
system.mem_ctrls2.readPktSize::6               133440                       # Read request sizes (log2)
system.mem_ctrls2.writePktSize::0                   0                       # Write request sizes (log2)
system.mem_ctrls2.writePktSize::1                   0                       # Write request sizes (log2)
system.mem_ctrls2.writePktSize::2                   0                       # Write request sizes (log2)
system.mem_ctrls2.writePktSize::3                   0                       # Write request sizes (log2)
system.mem_ctrls2.writePktSize::4                   0                       # Write request sizes (log2)
system.mem_ctrls2.writePktSize::5                   0                       # Write request sizes (log2)
system.mem_ctrls2.writePktSize::6               19880                       # Write request sizes (log2)
system.mem_ctrls2.rdQLenPdf::0                  63641                       # What read queue length does an incoming req see
system.mem_ctrls2.rdQLenPdf::1                  33750                       # What read queue length does an incoming req see
system.mem_ctrls2.rdQLenPdf::2                  17944                       # What read queue length does an incoming req see
system.mem_ctrls2.rdQLenPdf::3                   9503                       # What read queue length does an incoming req see
system.mem_ctrls2.rdQLenPdf::4                   4904                       # What read queue length does an incoming req see
system.mem_ctrls2.rdQLenPdf::5                   2326                       # What read queue length does an incoming req see
system.mem_ctrls2.rdQLenPdf::6                    919                       # What read queue length does an incoming req see
system.mem_ctrls2.rdQLenPdf::7                    308                       # What read queue length does an incoming req see
system.mem_ctrls2.rdQLenPdf::8                    110                       # What read queue length does an incoming req see
system.mem_ctrls2.rdQLenPdf::9                     22                       # What read queue length does an incoming req see
system.mem_ctrls2.rdQLenPdf::10                     3                       # What read queue length does an incoming req see
system.mem_ctrls2.rdQLenPdf::11                     0                       # What read queue length does an incoming req see
system.mem_ctrls2.rdQLenPdf::12                     0                       # What read queue length does an incoming req see
system.mem_ctrls2.rdQLenPdf::13                     0                       # What read queue length does an incoming req see
system.mem_ctrls2.rdQLenPdf::14                     0                       # What read queue length does an incoming req see
system.mem_ctrls2.rdQLenPdf::15                     0                       # What read queue length does an incoming req see
system.mem_ctrls2.rdQLenPdf::16                     0                       # What read queue length does an incoming req see
system.mem_ctrls2.rdQLenPdf::17                     0                       # What read queue length does an incoming req see
system.mem_ctrls2.rdQLenPdf::18                     0                       # What read queue length does an incoming req see
system.mem_ctrls2.rdQLenPdf::19                     0                       # What read queue length does an incoming req see
system.mem_ctrls2.rdQLenPdf::20                     0                       # What read queue length does an incoming req see
system.mem_ctrls2.rdQLenPdf::21                     0                       # What read queue length does an incoming req see
system.mem_ctrls2.rdQLenPdf::22                     0                       # What read queue length does an incoming req see
system.mem_ctrls2.rdQLenPdf::23                     0                       # What read queue length does an incoming req see
system.mem_ctrls2.rdQLenPdf::24                     0                       # What read queue length does an incoming req see
system.mem_ctrls2.rdQLenPdf::25                     0                       # What read queue length does an incoming req see
system.mem_ctrls2.rdQLenPdf::26                     0                       # What read queue length does an incoming req see
system.mem_ctrls2.rdQLenPdf::27                     0                       # What read queue length does an incoming req see
system.mem_ctrls2.rdQLenPdf::28                     0                       # What read queue length does an incoming req see
system.mem_ctrls2.rdQLenPdf::29                     0                       # What read queue length does an incoming req see
system.mem_ctrls2.rdQLenPdf::30                     0                       # What read queue length does an incoming req see
system.mem_ctrls2.rdQLenPdf::31                     0                       # What read queue length does an incoming req see
system.mem_ctrls2.wrQLenPdf::0                      1                       # What write queue length does an incoming req see
system.mem_ctrls2.wrQLenPdf::1                      1                       # What write queue length does an incoming req see
system.mem_ctrls2.wrQLenPdf::2                      1                       # What write queue length does an incoming req see
system.mem_ctrls2.wrQLenPdf::3                      1                       # What write queue length does an incoming req see
system.mem_ctrls2.wrQLenPdf::4                      1                       # What write queue length does an incoming req see
system.mem_ctrls2.wrQLenPdf::5                      1                       # What write queue length does an incoming req see
system.mem_ctrls2.wrQLenPdf::6                      1                       # What write queue length does an incoming req see
system.mem_ctrls2.wrQLenPdf::7                      1                       # What write queue length does an incoming req see
system.mem_ctrls2.wrQLenPdf::8                      1                       # What write queue length does an incoming req see
system.mem_ctrls2.wrQLenPdf::9                      1                       # What write queue length does an incoming req see
system.mem_ctrls2.wrQLenPdf::10                     1                       # What write queue length does an incoming req see
system.mem_ctrls2.wrQLenPdf::11                     1                       # What write queue length does an incoming req see
system.mem_ctrls2.wrQLenPdf::12                     1                       # What write queue length does an incoming req see
system.mem_ctrls2.wrQLenPdf::13                     1                       # What write queue length does an incoming req see
system.mem_ctrls2.wrQLenPdf::14                     1                       # What write queue length does an incoming req see
system.mem_ctrls2.wrQLenPdf::15                   438                       # What write queue length does an incoming req see
system.mem_ctrls2.wrQLenPdf::16                   479                       # What write queue length does an incoming req see
system.mem_ctrls2.wrQLenPdf::17                   849                       # What write queue length does an incoming req see
system.mem_ctrls2.wrQLenPdf::18                  1136                       # What write queue length does an incoming req see
system.mem_ctrls2.wrQLenPdf::19                  1221                       # What write queue length does an incoming req see
[...]
system.ruby.L1Cache_Controller.MR.Load::total        48221                      
system.ruby.L1Cache_Controller.MR.Ifetch |         182      2.72%      2.72% |         182      2.72%      5.45% |        1002     15.00%     20.45% |         232      3.47%     23.92% |         193      2.89%     26.81% |           0      0.00%     26.81% |           0      0.00%     26.81% |        1018     15.24%     42.05% |         978     14.64%     56.69% |         190      2.84%     59.54% |         169      2.53%     62.07% |        1004     15.03%     77.10% |         180      2.69%     79.79% |         192      2.87%     82.66% |         157      2.35%     85.01% |        1001     14.99%    100.00%
system.ruby.L1Cache_Controller.MR.Ifetch::total         6680                      
system.ruby.L1Cache_Controller.MR.Store  |           8      6.61%      6.61% |           9      7.44%     14.05% |           8      6.61%     20.66% |           9      7.44%     28.10% |           8      6.61%     34.71% |           0      0.00%     34.71% |           0      0.00%     34.71% |           9      7.44%     42.15% |           9      7.44%     49.59% |           8      6.61%     56.20% |           9      7.44%     63.64% |           9      7.44%     71.07% |           9      7.44%     78.51% |           8      6.61%     85.12% |           9      7.44%     92.56% |           9      7.44%    100.00%
system.ruby.L1Cache_Controller.MR.Store::total          121                      
system.ruby.L1Cache_Controller.MMR.Load  |         969      5.13%      5.13% |         993      5.25%     10.38% |        1068      5.65%     16.03% |         855      4.52%     20.55% |         771      4.08%     24.63% |           0      0.00%     24.63% |           0      0.00%     24.63% |         961      5.08%     29.71% |        5361     28.36%     58.07% |         870      4.60%     62.67% |        1138      6.02%     68.69% |        1878      9.93%     78.63% |         991      5.24%     83.87% |         789      4.17%     88.04% |        1135      6.00%     94.05% |        1125      5.95%    100.00%
system.ruby.L1Cache_Controller.MMR.Load::total        18904                      
system.ruby.L1Cache_Controller.MMR.Store |        1685      9.64%      9.64% |        1463      8.37%     18.00% |        1439      8.23%     26.23% |        1501      8.58%     34.81% |         964      5.51%     40.33% |           0      0.00%     40.33% |           0      0.00%     40.33% |        1529      8.74%     49.07% |        1069      6.11%     55.18% |         679      3.88%     59.07% |        1333      7.62%     66.69% |         822      4.70%     71.39% |        1537      8.79%     80.18% |         955      5.46%     85.64% |        1178      6.74%     92.38% |        1333      7.62%    100.00%
system.ruby.L1Cache_Controller.MMR.Store::total        17487                      
system.ruby.L1Cache_Controller.IM.Ack    |      153870      8.43%      8.43% |      160288      8.79%     17.22% |      158920      8.71%     25.93% |      155170      8.50%     34.43% |      155879      8.54%     42.98% |        5807      0.32%     43.30% |        5696      0.31%     43.61% |      153619      8.42%     52.03% |       37250      2.04%     54.07% |       37902      2.08%     56.15% |      145897      8.00%     64.14% |       37089      2.03%     66.18% |      156695      8.59%     74.77% |      153254      8.40%     83.17% |      161853      8.87%     92.04% |      145284      7.96%    100.00%
system.ruby.L1Cache_Controller.IM.Ack::total      1824473                      
system.ruby.L1Cache_Controller.IM.Exclusive_Data |       10276      8.42%      8.42% |       10702      8.76%     17.18% |       10612      8.69%     25.87% |       10362      8.49%     34.36% |       10411      8.53%     42.88% |         525      0.43%     43.31% |         525      0.43%     43.74% |       10255      8.40%     52.14% |        2494      2.04%     54.18% |        2545      2.08%     56.27% |        9740      7.98%     64.24% |        2483      2.03%     66.28% |       10457      8.56%     74.84% |       10228      8.38%     83.22% |       10801      8.85%     92.06% |        9694      7.94%    100.00%
system.ruby.L1Cache_Controller.IM.Exclusive_Data::total       122110                      
system.ruby.L1Cache_Controller.SM.Ack    |           4      4.44%      4.44% |           7      7.78%     12.22% |           5      5.56%     17.78% |           4      4.44%     22.22% |           4      4.44%     26.67% |           0      0.00%     26.67% |           0      0.00%     26.67% |           4      4.44%     31.11% |          10     11.11%     42.22% |           3      3.33%     45.56% |           8      8.89%     54.44% |           8      8.89%     63.33% |           6      6.67%     70.00% |           9     10.00%     80.00% |          10     11.11%     91.11% |           8      8.89%    100.00%
system.ruby.L1Cache_Controller.SM.Ack::total           90                      
system.ruby.L1Cache_Controller.SM.Data   |           1      7.14%      7.14% |           1      7.14%     14.29% |           1      7.14%     21.43% |           1      7.14%     28.57% |           1      7.14%     35.71% |           0      0.00%     35.71% |           0      0.00%     35.71% |           1      7.14%     42.86% |           1      7.14%     50.00% |           1      7.14%     57.14% |           1      7.14%     64.29% |           1      7.14%     71.43% |           1      7.14%     78.57% |           1      7.14%     85.71% |           1      7.14%     92.86% |           1      7.14%    100.00%
system.ruby.L1Cache_Controller.SM.Data::total           14                      
system.ruby.L1Cache_Controller.ISM.Ack   |          10      9.43%      9.43% |           7      6.60%     16.04% |           9      8.49%     24.53% |          10      9.43%     33.96% |          10      9.43%     43.40% |           0      0.00%     43.40% |           0      0.00%     43.40% |          10      9.43%     52.83% |           4      3.77%     56.60% |          11     10.38%     66.98% |           6      5.66%     72.64% |           6      5.66%     78.30% |           8      7.55%     85.85% |           5      4.72%     90.57% |           4      3.77%     94.34% |           6      5.66%    100.00%
system.ruby.L1Cache_Controller.ISM.Ack::total          106                      
system.ruby.L1Cache_Controller.ISM.All_acks_no_sharers |           1      7.14%      7.14% |           1      7.14%     14.29% |           1      7.14%     21.43% |           1      7.14%     28.57% |           1      7.14%     35.71% |           0      0.00%     35.71% |           0      0.00%     35.71% |           1      7.14%     42.86% |           1      7.14%     50.00% |           1      7.14%     57.14% |           1      7.14%     64.29% |           1      7.14%     71.43% |           1      7.14%     78.57% |           1      7.14%     85.71% |           1      7.14%     92.86% |           1      7.14%    100.00%
system.ruby.L1Cache_Controller.ISM.All_acks_no_sharers::total           14                      
system.ruby.L1Cache_Controller.M_W.Store |           0      0.00%      0.00% |           0      0.00%      0.00% |           0      0.00%      0.00% |           0      0.00%      0.00% |           0      0.00%      0.00% |           0      0.00%      0.00% |           0      0.00%      0.00% |           0      0.00%      0.00% |           0      0.00%      0.00% |           0      0.00%      0.00% |           2    100.00%    100.00% |           0      0.00%    100.00% |           0      0.00%    100.00% |           0      0.00%    100.00% |           0      0.00%    100.00% |           0      0.00%    100.00%
system.ruby.L1Cache_Controller.M_W.Store::total            2                      
system.ruby.L1Cache_Controller.M_W.Ack   |         703      6.26%      6.26% |         669      5.96%     12.22% |         654      5.82%     18.04% |         662      5.90%     23.94% |         736      6.55%     30.49% |        1759     15.66%     46.16% |        1832     16.31%     62.47% |         511      4.55%     67.02% |         398      3.54%     70.57% |         702      6.25%     76.82% |         573      5.10%     81.92% |         434      3.86%     85.79% |         385      3.43%     89.22% |         357      3.18%     92.39% |         513      4.57%     96.96% |         341      3.04%    100.00%
system.ruby.L1Cache_Controller.M_W.Ack::total        11229                      
system.ruby.L1Cache_Controller.M_W.All_acks_no_sharers |       16973      4.06%      4.06% |       33435      8.01%     12.07% |       33007      7.90%     19.97% |       17137      4.10%     24.08% |        9519      2.28%     26.36% |         364      0.09%     26.44% |         364      0.09%     26.53% |       24618      5.89%     32.42% |       56030     13.42%     45.84% |        9519      2.28%     48.12% |       41554      9.95%     58.07% |       50260     12.03%     70.10% |       24622      5.90%     76.00% |        9519      2.28%     78.28% |       49267     11.80%     90.08% |       41447      9.92%    100.00%
system.ruby.L1Cache_Controller.M_W.All_acks_no_sharers::total       417635                      
system.ruby.L1Cache_Controller.MM_W.Store |           7    100.00%    100.00% |           0      0.00%    100.00% |           0      0.00%    100.00% |           0      0.00%    100.00% |           0      0.00%    100.00% |           0      0.00%    100.00% |           0      0.00%    100.00% |           0      0.00%    100.00% |           0      0.00%    100.00% |           0      0.00%    100.00% |           0      0.00%    100.00% |           0      0.00%    100.00% |           0      0.00%    100.00% |           0      0.00%    100.00% |           0      0.00%    100.00% |           0      0.00%    100.00%
system.ruby.L1Cache_Controller.MM_W.Store::total            7                      
system.ruby.L1Cache_Controller.MM_W.Ack  |         244      3.99%      3.99% |         216      3.53%      7.52% |         234      3.83%     11.35% |         234      3.83%     15.18% |         260      4.25%     19.43% |        1718     28.10%     47.54% |        1829     29.92%     77.46% |         180      2.94%     80.40% |         134      2.19%     82.59% |         247      4.04%     86.64% |         177      2.90%     89.53% |         130      2.13%     91.66% |         134      2.19%     93.85% |         140      2.29%     96.14% |         136      2.22%     98.36% |         100      1.64%    100.00%
system.ruby.L1Cache_Controller.MM_W.Ack::total         6113                      
system.ruby.L1Cache_Controller.MM_W.All_acks_no_sharers |       10276      8.42%      8.42% |       10702      8.76%     17.18% |       10612      8.69%     25.87% |       10362      8.49%     34.36% |       10411      8.53%     42.88% |         525      0.43%     43.31% |         525      0.43%     43.74% |       10255      8.40%     52.14% |        2494      2.04%     54.18% |        2545      2.08%     56.27% |        9742      7.98%     64.24% |        2483      2.03%     66.28% |       10457      8.56%     74.84% |       10228      8.38%     83.22% |       10801      8.85%     92.06% |        9694      7.94%    100.00%
system.ruby.L1Cache_Controller.MM_W.All_acks_no_sharers::total       122112                      
system.ruby.L1Cache_Controller.IS.Ack    |      253822      4.06%      4.06% |      500785      8.01%     12.07% |      494382      7.91%     19.98% |      256321      4.10%     24.08% |      141981      2.27%     26.35% |        3337      0.05%     26.40% |        3264      0.05%     26.46% |      368691      5.90%     32.35% |      839985     13.44%     45.79% |      142012      2.27%     48.06% |      622697      9.96%     58.02% |      753398     12.05%     70.07% |      368877      5.90%     75.97% |      142361      2.28%     78.25% |      738425     11.81%     90.06% |      621297      9.94%    100.00%
system.ruby.L1Cache_Controller.IS.Ack::total      6251635                      
system.ruby.L1Cache_Controller.IS.Shared_Data |           1      7.14%      7.14% |           1      7.14%     14.29% |           1      7.14%     21.43% |           1      7.14%     28.57% |           1      7.14%     35.71% |           0      0.00%     35.71% |           0      0.00%     35.71% |           1      7.14%     42.86% |           1      7.14%     50.00% |           1      7.14%     57.14% |           1      7.14%     64.29% |           1      7.14%     71.43% |           1      7.14%     78.57% |           1      7.14%     85.71% |           1      7.14%     92.86% |           1      7.14%    100.00%
system.ruby.L1Cache_Controller.IS.Shared_Data::total           14                      
system.ruby.L1Cache_Controller.IS.Exclusive_Data |       16973      4.06%      4.06% |       33435      8.01%     12.07% |       33007      7.90%     19.97% |       17137      4.10%     24.08% |        9519      2.28%     26.36% |         364      0.09%     26.44% |         364      0.09%     26.53% |       24618      5.89%     32.42% |       56030     13.42%     45.84% |        9519      2.28%     48.12% |       41556      9.95%     58.07% |       50260     12.03%     70.10% |       24622      5.90%     76.00% |        9519      2.28%     78.28% |       49267     11.80%     90.08% |       41447      9.92%    100.00%
system.ruby.L1Cache_Controller.IS.Exclusive_Data::total       417637                      
system.ruby.L1Cache_Controller.SS.Ack    |           9      8.26%      8.26% |          10      9.17%     17.43% |           8      7.34%     24.77% |          11     10.09%     34.86% |           7      6.42%     41.28% |           0      0.00%     41.28% |           0      0.00%     41.28% |           7      6.42%     47.71% |           6      5.50%     53.21% |          10      9.17%     62.39% |           9      8.26%     70.64% |           7      6.42%     77.06% |           7      6.42%     83.49% |           6      5.50%     88.99% |           6      5.50%     94.50% |           6      5.50%    100.00%
system.ruby.L1Cache_Controller.SS.Ack::total          109                      
system.ruby.L1Cache_Controller.SS.All_acks |           1      7.14%      7.14% |           1      7.14%     14.29% |           1      7.14%     21.43% |           1      7.14%     28.57% |           1      7.14%     35.71% |           0      0.00%     35.71% |           0      0.00%     35.71% |           1      7.14%     42.86% |           1      7.14%     50.00% |           1      7.14%     57.14% |           1      7.14%     64.29% |           1      7.14%     71.43% |           1      7.14%     78.57% |           1      7.14%     85.71% |           1      7.14%     92.86% |           1      7.14%    100.00%
system.ruby.L1Cache_Controller.SS.All_acks::total           14                      
system.ruby.L1Cache_Controller.MI.Load   |           0      0.00%      0.00% |           4     10.26%     10.26% |           3      7.69%     17.95% |           0      0.00%     17.95% |           0      0.00%     17.95% |           0      0.00%     17.95% |           0      0.00%     17.95% |           0      0.00%     17.95% |           0      0.00%     17.95% |           0      0.00%     17.95% |           7     17.95%     35.90% |          11     28.21%     64.10% |           2      5.13%     69.23% |           0      0.00%     69.23% |           3      7.69%     76.92% |           9     23.08%    100.00%
system.ruby.L1Cache_Controller.MI.Load::total           39                      
system.ruby.L1Cache_Controller.MI.Ifetch |           0      0.00%      0.00% |           0      0.00%      0.00% |           2    100.00%    100.00% |           0      0.00%    100.00% |           0      0.00%    100.00% |           0      0.00%    100.00% |           0      0.00%    100.00% |           0      0.00%    100.00% |           0      0.00%    100.00% |           0      0.00%    100.00% |           0      0.00%    100.00% |           0      0.00%    100.00% |           0      0.00%    100.00% |           0      0.00%    100.00% |           0      0.00%    100.00% |           0      0.00%    100.00%
system.ruby.L1Cache_Controller.MI.Ifetch::total            2                      
system.ruby.L1Cache_Controller.MI.Store  |           0      0.00%      0.00% |           0      0.00%      0.00% |           2     40.00%     40.00% |           0      0.00%     40.00% |           0      0.00%     40.00% |           0      0.00%     40.00% |           0      0.00%     40.00% |           0      0.00%     40.00% |           2     40.00%     80.00% |           0      0.00%     80.00% |           1     20.00%    100.00% |           0      0.00%    100.00% |           0      0.00%    100.00% |           0      0.00%    100.00% |           0      0.00%    100.00% |           0      0.00%    100.00%
system.ruby.L1Cache_Controller.MI.Store::total            5                      
system.ruby.L1Cache_Controller.MI.Writeback_Ack |         305      0.24%      0.24% |        9946      7.72%      7.96% |        9463      7.34%     15.30% |         271      0.21%     15.51% |           6      0.00%     15.51% |           0      0.00%     15.51% |           0      0.00%     15.51% |        3001      2.33%     17.84% |       24322     18.88%     36.72% |           1      0.00%     36.72% |       17027     13.21%     49.93% |       18596     14.43%     64.37% |        3197      2.48%     66.85% |          95      0.07%     66.92% |       25747     19.98%     86.90% |       16878     13.10%    100.00%
system.ruby.L1Cache_Controller.MI.Writeback_Ack::total       128855                      
system.ruby.L1Cache_Controller.MT.Complete_L2_to_L1 |        3746      6.81%      6.81% |        3689      6.70%     13.51% |        4502      8.18%     21.69% |        3663      6.66%     28.35% |        3548      6.45%     34.80% |           0      0.00%     34.80% |           0      0.00%     34.80% |        4519      8.21%     43.01% |        4334      7.88%     50.89% |        3579      6.50%     57.40% |        3715      6.75%     64.15% |        4472      8.13%     72.27% |        3536      6.43%     78.70% |        3522      6.40%     85.10% |        3741      6.80%     91.90% |        4456      8.10%    100.00%
system.ruby.L1Cache_Controller.MT.Complete_L2_to_L1::total        55022                      
system.ruby.L1Cache_Controller.MMT.Store |           0      0.00%      0.00% |           0      0.00%      0.00% |           0      0.00%      0.00% |           0      0.00%      0.00% |           0      0.00%      0.00% |           0      0.00%      0.00% |           0      0.00%      0.00% |           0      0.00%      0.00% |           1    100.00%    100.00% |           0      0.00%    100.00% |           0      0.00%    100.00% |           0      0.00%    100.00% |           0      0.00%    100.00% |           0      0.00%    100.00% |           0      0.00%    100.00% |           0      0.00%    100.00%
system.ruby.L1Cache_Controller.MMT.Store::total            1                      
system.ruby.L1Cache_Controller.MMT.Complete_L2_to_L1 |        2654      7.29%      7.29% |        2456      6.75%     14.04% |        2507      6.89%     20.93% |        2356      6.47%     27.41% |        1735      4.77%     32.17% |           0      0.00%     32.17% |           0      0.00%     32.17% |        2490      6.84%     39.02% |        6430     17.67%     56.68% |        1549      4.26%     60.94% |        2471      6.79%     67.73% |        2700      7.42%     75.15% |        2528      6.95%     82.10% |        1744      4.79%     86.89% |        2313      6.36%     93.25% |        2458      6.75%    100.00%
system.ruby.L1Cache_Controller.MMT.Complete_L2_to_L1::total        36391                      

---------- End Simulation Statistics   ----------
