
---------- Begin Simulation Statistics ----------
sim_seconds                                  0.013351                       # Number of seconds simulated
sim_ticks                                 13351084500                       # Number of ticks simulated
final_tick                                13351084500                       # Number of ticks from beginning of simulation (restored from checkpoints and never reset)
sim_freq                                 1000000000000                       # Frequency of simulated ticks
host_inst_rate                                  35036                       # Simulator instruction rate (inst/s)
host_op_rate                                    61196                       # Simulator op (including micro ops) rate (op/s)
host_tick_rate                               11055694                       # Simulator tick rate (ticks/s)
host_mem_usage                                1758696                       # Number of bytes of host memory used
host_seconds                                  1207.62                       # Real time elapsed on the host
sim_insts                                    42309926                       # Number of instructions simulated
sim_ops                                      73901299                       # Number of ops (including micro ops) simulated
system.voltage_domain.voltage                       1                       # Voltage in Volts
system.clk_domain.clock                          1000                       # Clock period in ticks
system.mem_ctrls0.pwrStateResidencyTicks::UNDEFINED  13351084500                       # Cumulative time (in ticks) in various power states
system.mem_ctrls0.bytes_read::ruby.dir_cntrl0      8594304                       # Number of bytes read from this memory
system.mem_ctrls0.bytes_read::total           8594304                       # Number of bytes read from this memory
system.mem_ctrls0.bytes_written::ruby.dir_cntrl0      1271360                       # Number of bytes written to this memory
system.mem_ctrls0.bytes_written::total        1271360                       # Number of bytes written to this memory
system.mem_ctrls0.num_reads::ruby.dir_cntrl0       134286                       # Number of read requests responded to by this memory
system.mem_ctrls0.num_reads::total             134286                       # Number of read requests responded to by this memory
system.mem_ctrls0.num_writes::ruby.dir_cntrl0        19865                       # Number of write requests responded to by this memory
system.mem_ctrls0.num_writes::total             19865                       # Number of write requests responded to by this memory
system.mem_ctrls0.bw_read::ruby.dir_cntrl0    643715797                       # Total read bandwidth from this memory (bytes/s)
system.mem_ctrls0.bw_read::total            643715797                       # Total read bandwidth from this memory (bytes/s)
system.mem_ctrls0.bw_write::ruby.dir_cntrl0     95225223                       # Write bandwidth from this memory (bytes/s)
system.mem_ctrls0.bw_write::total            95225223                       # Write bandwidth from this memory (bytes/s)
system.mem_ctrls0.bw_total::ruby.dir_cntrl0    738941020                       # Total bandwidth to/from this memory (bytes/s)
system.mem_ctrls0.bw_total::total           738941020                       # Total bandwidth to/from this memory (bytes/s)
system.mem_ctrls0.readReqs                     134286                       # Number of read requests accepted
system.mem_ctrls0.avgNetLat                      0.00                       # Average network latency to DRAM controller
system.mem_ctrls0.writeReqs                     19865                       # Number of write requests accepted
system.mem_ctrls0.readBursts                   134286                       # Number of DRAM read bursts, including those serviced by the write queue
system.mem_ctrls0.writeBursts                   19865                       # Number of DRAM write bursts, including those merged in the write queue
system.mem_ctrls0.bytesReadDRAM               8593600                       # Total number of bytes read from DRAM
system.mem_ctrls0.bytesReadWrQ                    704                       # Total number of bytes read from write queue
system.mem_ctrls0.bytesWritten                1269312                       # Total number of bytes written to DRAM
system.mem_ctrls0.bytesReadSys                8594304                       # Total read bytes from the system interface side
system.mem_ctrls0.bytesWrittenSys             1271360                       # Total written bytes from the system interface side
system.mem_ctrls0.servicedByWrQ                    11                       # Number of DRAM read bursts serviced by the write queue
system.mem_ctrls0.mergedWrBursts                    0                       # Number of DRAM write bursts merged with an existing one
system.mem_ctrls0.neitherReadNorWriteReqs            0                       # Number of requests that are neither read nor write
system.mem_ctrls0.perBankRdBursts::0             8355                       # Per bank write bursts
system.mem_ctrls0.perBankRdBursts::1             8209                       # Per bank write bursts
system.mem_ctrls0.perBankRdBursts::2             8529                       # Per bank write bursts
system.mem_ctrls0.perBankRdBursts::3             8338                       # Per bank write bursts
system.mem_ctrls0.perBankRdBursts::4             8530                       # Per bank write bursts
system.mem_ctrls0.perBankRdBursts::5             8199                       # Per bank write bursts
system.mem_ctrls0.perBankRdBursts::6             8411                       # Per bank write bursts
system.mem_ctrls0.perBankRdBursts::7             8005                       # Per bank write bursts
system.mem_ctrls0.perBankRdBursts::8             8236                       # Per bank write bursts
system.mem_ctrls0.perBankRdBursts::9             8272                       # Per bank write bursts
system.mem_ctrls0.perBankRdBursts::10            8931                       # Per bank write bursts
system.mem_ctrls0.perBankRdBursts::11            8764                       # Per bank write bursts
system.mem_ctrls0.perBankRdBursts::12            8819                       # Per bank write bursts
system.mem_ctrls0.perBankRdBursts::13            8504                       # Per bank write bursts
system.mem_ctrls0.perBankRdBursts::14            8090                       # Per bank write bursts
system.mem_ctrls0.perBankRdBursts::15            8083                       # Per bank write bursts
system.mem_ctrls0.perBankWrBursts::0             1359                       # Per bank write bursts
system.mem_ctrls0.perBankWrBursts::1             1315                       # Per bank write bursts
system.mem_ctrls0.perBankWrBursts::2             1215                       # Per bank write bursts
system.mem_ctrls0.perBankWrBursts::3             1304                       # Per bank write bursts
system.mem_ctrls0.perBankWrBursts::4             1500                       # Per bank write bursts
system.mem_ctrls0.perBankWrBursts::5             1238                       # Per bank write bursts
system.mem_ctrls0.perBankWrBursts::6             1208                       # Per bank write bursts
system.mem_ctrls0.perBankWrBursts::7             1019                       # Per bank write bursts
system.mem_ctrls0.perBankWrBursts::8             1173                       # Per bank write bursts
system.mem_ctrls0.perBankWrBursts::9             1306                       # Per bank write bursts
system.mem_ctrls0.perBankWrBursts::10            1294                       # Per bank write bursts
system.mem_ctrls0.perBankWrBursts::11            1246                       # Per bank write bursts
system.mem_ctrls0.perBankWrBursts::12            1327                       # Per bank write bursts
system.mem_ctrls0.perBankWrBursts::13            1130                       # Per bank write bursts
system.mem_ctrls0.perBankWrBursts::14            1054                       # Per bank write bursts
system.mem_ctrls0.perBankWrBursts::15            1145                       # Per bank write bursts
system.mem_ctrls0.numRdRetry                        0                       # Number of times read queue was full causing retry
system.mem_ctrls0.numWrRetry                        0                       # Number of times write queue was full causing retry
system.mem_ctrls0.totGap                  13350098500                       # Total gap between requests
system.mem_ctrls0.readPktSize::0                    0                       # Read request sizes (log2)
system.mem_ctrls0.readPktSize::1                    0                       # Read request sizes (log2)
system.mem_ctrls0.readPktSize::2                    0                       # Read request sizes (log2)
system.mem_ctrls0.readPktSize::3                    0                       # Read request sizes (log2)
system.mem_ctrls0.readPktSize::4                    0                       # Read request sizes (log2)
system.mem_ctrls0.readPktSize::5                    0                       # Read request sizes (log2)
system.mem_ctrls0.readPktSize::6               134286                       # Read request sizes (log2)
system.mem_ctrls0.writePktSize::0                   0                       # Write request sizes (log2)
system.mem_ctrls0.writePktSize::1                   0                       # Write request sizes (log2)
system.mem_ctrls0.writePktSize::2                   0                       # Write request sizes (log2)
system.mem_ctrls0.writePktSize::3                   0                       # Write request sizes (log2)
system.mem_ctrls0.writePktSize::4                   0                       # Write request sizes (log2)
system.mem_ctrls0.writePktSize::5                   0                       # Write request sizes (log2)
system.mem_ctrls0.writePktSize::6               19865                       # Write request sizes (log2)
system.mem_ctrls0.rdQLenPdf::0                  65918                       # What read queue length does an incoming req see
system.mem_ctrls0.rdQLenPdf::1                  34535                       # What read queue length does an incoming req see
system.mem_ctrls0.rdQLenPdf::2                  17939                       # What read queue length does an incoming req see
system.mem_ctrls0.rdQLenPdf::3                   9119                       # What read queue length does an incoming req see
system.mem_ctrls0.rdQLenPdf::4                   4119                       # What read queue length does an incoming req see
system.mem_ctrls0.rdQLenPdf::5                   1693                       # What read queue length does an incoming req see
system.mem_ctrls0.rdQLenPdf::6                    655                       # What read queue length does an incoming req see
system.mem_ctrls0.rdQLenPdf::7                    220                       # What read queue length does an incoming req see
system.mem_ctrls0.rdQLenPdf::8                     62                       # What read queue length does an incoming req see
system.mem_ctrls0.rdQLenPdf::9                      9                       # What read queue length does an incoming req see
system.mem_ctrls0.rdQLenPdf::10                     2                       # What read queue length does an incoming req see
system.mem_ctrls0.rdQLenPdf::11                     2                       # What read queue length does an incoming req see
system.mem_ctrls0.rdQLenPdf::12                     1                       # What read queue length does an incoming req see
system.mem_ctrls0.rdQLenPdf::13                     1                       # What read queue length does an incoming req see
system.mem_ctrls0.rdQLenPdf::14                     0                       # What read queue length does an incoming req see
system.mem_ctrls0.rdQLenPdf::15                     0                       # What read queue length does an incoming req see
system.mem_ctrls0.rdQLenPdf::16                     0                       # What read queue length does an incoming req see
system.mem_ctrls0.rdQLenPdf::17                     0                       # What read queue length does an incoming req see
system.mem_ctrls0.rdQLenPdf::18                     0                       # What read queue length does an incoming req see
system.mem_ctrls0.rdQLenPdf::19                     0                       # What read queue length does an incoming req see
system.mem_ctrls0.rdQLenPdf::20                     0                       # What read queue length does an incoming req see
system.mem_ctrls0.rdQLenPdf::21                     0                       # What read queue length does an incoming req see
system.mem_ctrls0.rdQLenPdf::22                     0                       # What read queue length does an incoming req see
system.mem_ctrls0.rdQLenPdf::23                     0                       # What read queue length does an incoming req see
system.mem_ctrls0.rdQLenPdf::24                     0                       # What read queue length does an incoming req see
system.mem_ctrls0.rdQLenPdf::25                     0                       # What read queue length does an incoming req see
system.mem_ctrls0.rdQLenPdf::26                     0                       # What read queue length does an incoming req see
system.mem_ctrls0.rdQLenPdf::27                     0                       # What read queue length does an incoming req see
system.mem_ctrls0.rdQLenPdf::28                     0                       # What read queue length does an incoming req see
system.mem_ctrls0.rdQLenPdf::29                     0                       # What read queue length does an incoming req see
system.mem_ctrls0.rdQLenPdf::30                     0                       # What read queue length does an incoming req see
system.mem_ctrls0.rdQLenPdf::31                     0                       # What read queue length does an incoming req see
system.mem_ctrls0.wrQLenPdf::0                      1                       # What write queue length does an incoming req see
system.mem_ctrls0.wrQLenPdf::1                      1                       # What write queue length does an incoming req see
system.mem_ctrls0.wrQLenPdf::2                      1                       # What write queue length does an incoming req see
system.mem_ctrls0.wrQLenPdf::3                      1                       # What write queue length does an incoming req see
system.mem_ctrls0.wrQLenPdf::4                      1                       # What write queue length does an incoming req see
system.mem_ctrls0.wrQLenPdf::5                      1                       # What write queue length does an incoming req see
system.mem_ctrls0.wrQLenPdf::6                      1                       # What write queue length does an incoming req see
system.mem_ctrls0.wrQLenPdf::7                      1                       # What write queue length does an incoming req see
system.mem_ctrls0.wrQLenPdf::8                      1                       # What write queue length does an incoming req see
system.mem_ctrls0.wrQLenPdf::9                      1                       # What write queue length does an incoming req see
system.mem_ctrls0.wrQLenPdf::10                     1                       # What write queue length does an incoming req see
system.mem_ctrls0.wrQLenPdf::11                     1                       # What write queue length does an incoming req see
system.mem_ctrls0.wrQLenPdf::12                     1                       # What write queue length does an incoming req see
system.mem_ctrls0.wrQLenPdf::13                     1                       # What write queue length does an incoming req see
system.mem_ctrls0.wrQLenPdf::14                     1                       # What write queue length does an incoming req see
system.mem_ctrls0.wrQLenPdf::15                   462                       # What write queue length does an incoming req see
system.mem_ctrls0.wrQLenPdf::16                   508                       # What write queue length does an incoming req see
system.mem_ctrls0.wrQLenPdf::17                   854                       # What write queue length does an incoming req see
system.mem_ctrls0.wrQLenPdf::18                  1126                       # What write queue length does an incoming req see
system.mem_ctrls0.wrQLenPdf::19                  1210                       # What write queue length does an incoming req see
system.mem_ctrls0.wrQLenPdf::20                  1208                       # What write queue length does an incoming req see
system.mem_ctrls0.wrQLenPdf::21                  1210                       # What write queue length does an incoming req see
system.mem_ctrls0.wrQLenPdf::22                  1199                       # What write queue length does an incoming req see
system.mem_ctrls0.wrQLenPdf::23                  1211                       # What write queue length does an incoming req see
system.mem_ctrls0.wrQLenPdf::24                  1202                       # What write queue length does an incoming req see
system.mem_ctrls0.wrQLenPdf::25                  1224                       # What write queue length does an incoming req see
system.mem_ctrls0.wrQLenPdf::26                  1219                       # What write queue length does an incoming req see
system.mem_ctrls0.wrQLenPdf::27                  1222                       # What write queue length does an incoming req see
system.mem_ctrls0.wrQLenPdf::28                  1207                       # What write queue length does an incoming req see
system.mem_ctrls0.wrQLenPdf::29                  1219                       # What write queue length does an incoming req see
system.mem_ctrls0.wrQLenPdf::30                  1196                       # What write queue length does an incoming req see
system.mem_ctrls0.wrQLenPdf::31                  1180                       # What write queue length does an incoming req see
system.mem_ctrls0.wrQLenPdf::32                  1173                       # What write queue length does an incoming req see
system.mem_ctrls0.wrQLenPdf::33                    15                       # What write queue length does an incoming req see
system.mem_ctrls0.wrQLenPdf::34                     3                       # What write queue length does an incoming req see
system.mem_ctrls0.wrQLenPdf::35                     1                       # What write queue length does an incoming req see
system.mem_ctrls0.wrQLenPdf::36                     1                       # What write queue length does an incoming req see
system.mem_ctrls0.wrQLenPdf::37                     0                       # What write queue length does an incoming req see
system.mem_ctrls0.wrQLenPdf::38                     0                       # What write queue length does an incoming req see
system.mem_ctrls0.wrQLenPdf::39                     0                       # What write queue length does an incoming req see
system.mem_ctrls0.wrQLenPdf::40                     0                       # What write queue length does an incoming req see
system.mem_ctrls0.wrQLenPdf::41                     0                       # What write queue length does an incoming req see
system.mem_ctrls0.wrQLenPdf::42                     0                       # What write queue length does an incoming req see
system.mem_ctrls0.wrQLenPdf::43                     0                       # What write queue length does an incoming req see
system.mem_ctrls0.wrQLenPdf::44                     0                       # What write queue length does an incoming req see
system.mem_ctrls0.wrQLenPdf::45                     0                       # What write queue length does an incoming req see
system.mem_ctrls0.wrQLenPdf::46                     0                       # What write queue length does an incoming req see
system.mem_ctrls0.wrQLenPdf::47                     0                       # What write queue length does an incoming req see
system.mem_ctrls0.wrQLenPdf::48                     0                       # What write queue length does an incoming req see
system.mem_ctrls0.wrQLenPdf::49                     0                       # What write queue length does an incoming req see
system.mem_ctrls0.wrQLenPdf::50                     0                       # What write queue length does an incoming req see
system.mem_ctrls0.wrQLenPdf::51                     0                       # What write queue length does an incoming req see
system.mem_ctrls0.wrQLenPdf::52                     0                       # What write queue length does an incoming req see
system.mem_ctrls0.wrQLenPdf::53                     0                       # What write queue length does an incoming req see
system.mem_ctrls0.wrQLenPdf::54                     0                       # What write queue length does an incoming req see
system.mem_ctrls0.wrQLenPdf::55                     0                       # What write queue length does an incoming req see
system.mem_ctrls0.wrQLenPdf::56                     0                       # What write queue length does an incoming req see
system.mem_ctrls0.wrQLenPdf::57                     0                       # What write queue length does an incoming req see
system.mem_ctrls0.wrQLenPdf::58                     0                       # What write queue length does an incoming req see
system.mem_ctrls0.wrQLenPdf::59                     0                       # What write queue length does an incoming req see
system.mem_ctrls0.wrQLenPdf::60                     0                       # What write queue length does an incoming req see
system.mem_ctrls0.wrQLenPdf::61                     0                       # What write queue length does an incoming req see
system.mem_ctrls0.wrQLenPdf::62                     0                       # What write queue length does an incoming req see
system.mem_ctrls0.wrQLenPdf::63                     0                       # What write queue length does an incoming req see
system.mem_ctrls0.bytesPerActivate::samples        84391                       # Bytes accessed per row activation
system.mem_ctrls0.bytesPerActivate::mean   116.864784                       # Bytes accessed per row activation
system.mem_ctrls0.bytesPerActivate::gmean    89.414534                       # Bytes accessed per row activation
system.mem_ctrls0.bytesPerActivate::stdev   131.988819                       # Bytes accessed per row activation
system.mem_ctrls0.bytesPerActivate::0-127        59122     70.06%     70.06% # Bytes accessed per row activation
system.mem_ctrls0.bytesPerActivate::128-255        17132     20.30%     90.36% # Bytes accessed per row activation
system.mem_ctrls0.bytesPerActivate::256-383         3261      3.86%     94.22% # Bytes accessed per row activation
system.mem_ctrls0.bytesPerActivate::384-511         1754      2.08%     96.30% # Bytes accessed per row activation
system.mem_ctrls0.bytesPerActivate::512-639         1120      1.33%     97.63% # Bytes accessed per row activation
system.mem_ctrls0.bytesPerActivate::640-767         1367      1.62%     99.25% # Bytes accessed per row activation
system.mem_ctrls0.bytesPerActivate::768-895          108      0.13%     99.38% # Bytes accessed per row activation
system.mem_ctrls0.bytesPerActivate::896-1023           92      0.11%     99.48% # Bytes accessed per row activation
system.mem_ctrls0.bytesPerActivate::1024-1151          435      0.52%    100.00% # Bytes accessed per row activation
system.mem_ctrls0.bytesPerActivate::total        84391                       # Bytes accessed per row activation
system.mem_ctrls0.rdPerTurnAround::samples         1172                       # Reads before turning the bus around for writes
system.mem_ctrls0.rdPerTurnAround::mean    114.548635                       # Reads before turning the bus around for writes
system.mem_ctrls0.rdPerTurnAround::gmean    32.832233                       # Reads before turning the bus around for writes
system.mem_ctrls0.rdPerTurnAround::stdev  2032.059103                       # Reads before turning the bus around for writes
system.mem_ctrls0.rdPerTurnAround::0-4095         1171     99.91%     99.91% # Reads before turning the bus around for writes
system.mem_ctrls0.rdPerTurnAround::65536-69631            1      0.09%    100.00% # Reads before turning the bus around for writes
system.mem_ctrls0.rdPerTurnAround::total         1172                       # Reads before turning the bus around for writes
system.mem_ctrls0.wrPerTurnAround::samples         1172                       # Writes before turning the bus around for reads
system.mem_ctrls0.wrPerTurnAround::mean     16.922355                       # Writes before turning the bus around for reads
system.mem_ctrls0.wrPerTurnAround::gmean    16.887571                       # Writes before turning the bus around for reads
system.mem_ctrls0.wrPerTurnAround::stdev     1.098067                       # Writes before turning the bus around for reads
system.mem_ctrls0.wrPerTurnAround::16             656     55.97%     55.97% # Writes before turning the bus around for reads
system.mem_ctrls0.wrPerTurnAround::17              39      3.33%     59.30% # Writes before turning the bus around for reads
system.mem_ctrls0.wrPerTurnAround::18             397     33.87%     93.17% # Writes before turning the bus around for reads
system.mem_ctrls0.wrPerTurnAround::19              74      6.31%     99.49% # Writes before turning the bus around for reads
system.mem_ctrls0.wrPerTurnAround::20               5      0.43%     99.91% # Writes before turning the bus around for reads
system.mem_ctrls0.wrPerTurnAround::22               1      0.09%    100.00% # Writes before turning the bus around for reads
system.mem_ctrls0.wrPerTurnAround::total         1172                       # Writes before turning the bus around for reads
system.mem_ctrls0.totQLat                  3749528250                       # Total ticks spent queuing
system.mem_ctrls0.totMemAccLat             6267184500                       # Total ticks spent from burst creation until serviced by the DRAM
system.mem_ctrls0.totBusLat                 671375000                       # Total ticks spent in databus transfers
system.mem_ctrls0.avgQLat                    27924.25                       # Average queueing delay per DRAM burst
system.mem_ctrls0.avgBusLat                   5000.00                       # Average bus latency per DRAM burst
system.mem_ctrls0.avgMemAccLat               46674.25                       # Average memory access latency per DRAM burst
system.mem_ctrls0.avgRdBW                      643.66                       # Average DRAM read bandwidth in MiByte/s
system.mem_ctrls0.avgWrBW                       95.07                       # Average achieved write bandwidth in MiByte/s
system.mem_ctrls0.avgRdBWSys                   643.72                       # Average system read bandwidth in MiByte/s
system.mem_ctrls0.avgWrBWSys                    95.23                       # Average system write bandwidth in MiByte/s
system.mem_ctrls0.peakBW                     12800.00                       # Theoretical peak bandwidth in MiByte/s
system.mem_ctrls0.busUtil                        5.77                       # Data bus utilization in percentage
system.mem_ctrls0.busUtilRead                    5.03                       # Data bus utilization in percentage for reads
system.mem_ctrls0.busUtilWrite                   0.74                       # Data bus utilization in percentage for writes
system.mem_ctrls0.avgRdQLen                      1.54                       # Average read queue length when enqueuing
system.mem_ctrls0.avgWrQLen                     10.58                       # Average write queue length when enqueuing
system.mem_ctrls0.readRowHits                   63710                       # Number of row buffer hits during reads
system.mem_ctrls0.writeRowHits                   6003                       # Number of row buffer hits during writes
system.mem_ctrls0.readRowHitRate                47.45                       # Row buffer hit rate for reads
system.mem_ctrls0.writeRowHitRate               30.22                       # Row buffer hit rate for writes
system.mem_ctrls0.avgGap                     86604.03                       # Average gap between requests
system.mem_ctrls0.pageHitRate                   45.23                       # Row buffer hit rate, read and write combined
system.mem_ctrls0_0.actEnergy               301022400                       # Energy for activate commands per rank (pJ)
system.mem_ctrls0_0.preEnergy               159997200                       # Energy for precharge commands per rank (pJ)
system.mem_ctrls0_0.readEnergy              475352640                       # Energy for read commands per rank (pJ)
system.mem_ctrls0_0.writeEnergy              53024760                       # Energy for write commands per rank (pJ)
system.mem_ctrls0_0.refreshEnergy        1058410080.000000                       # Energy for refresh commands per rank (pJ)
system.mem_ctrls0_0.actBackEnergy          1388512020                       # Energy for active background per rank (pJ)
system.mem_ctrls0_0.preBackEnergy            25581600                       # Energy for precharge background per rank (pJ)
system.mem_ctrls0_0.actPowerDownEnergy     4271663790                       # Energy for active power-down per rank (pJ)
system.mem_ctrls0_0.prePowerDownEnergy      301193760                       # Energy for precharge power-down per rank (pJ)
system.mem_ctrls0_0.selfRefreshEnergy        32059905                       # Energy for self refresh per rank (pJ)
system.mem_ctrls0_0.totalEnergy            8066847375                       # Total energy per rank (pJ)
system.mem_ctrls0_0.averagePower           604.209124                       # Core power per rank (mW)
system.mem_ctrls0_0.totalIdleTime         10239469750                       # Total Idle time Per DRAM Rank
system.mem_ctrls0_0.memoryStateTime::IDLE     14991750                       # Time in different power states
system.mem_ctrls0_0.memoryStateTime::REF    447846000                       # Time in different power states
system.mem_ctrls0_0.memoryStateTime::SREF     87375250                       # Time in different power states
system.mem_ctrls0_0.memoryStateTime::PRE_PDN    784122500                       # Time in different power states
system.mem_ctrls0_0.memoryStateTime::ACT   2648265000                       # Time in different power states
system.mem_ctrls0_0.memoryStateTime::ACT_PDN   9368484000                       # Time in different power states
system.mem_ctrls0_1.actEnergy               301557900                       # Energy for activate commands per rank (pJ)
system.mem_ctrls0_1.preEnergy               160266645                       # Energy for precharge commands per rank (pJ)
system.mem_ctrls0_1.readEnergy              483370860                       # Energy for read commands per rank (pJ)
system.mem_ctrls0_1.writeEnergy              50503500                       # Energy for write commands per rank (pJ)
system.mem_ctrls0_1.refreshEnergy        1057795440.000000                       # Energy for refresh commands per rank (pJ)
system.mem_ctrls0_1.actBackEnergy          1395663240                       # Energy for active background per rank (pJ)
system.mem_ctrls0_1.preBackEnergy            25336800                       # Energy for precharge background per rank (pJ)
system.mem_ctrls0_1.actPowerDownEnergy     4311960510                       # Energy for active power-down per rank (pJ)
system.mem_ctrls0_1.prePowerDownEnergy      266603520                       # Energy for precharge power-down per rank (pJ)
system.mem_ctrls0_1.selfRefreshEnergy        27783930                       # Energy for self refresh per rank (pJ)
system.mem_ctrls0_1.totalEnergy            8081005665                       # Total energy per rank (pJ)
system.mem_ctrls0_1.averagePower           605.269584                       # Core power per rank (mW)
system.mem_ctrls0_1.totalIdleTime         10223688500                       # Total Idle time Per DRAM Rank
system.mem_ctrls0_1.memoryStateTime::IDLE     14385500                       # Time in different power states
system.mem_ctrls0_1.memoryStateTime::REF    447592000                       # Time in different power states
system.mem_ctrls0_1.memoryStateTime::SREF     73742500                       # Time in different power states
system.mem_ctrls0_1.memoryStateTime::PRE_PDN    694081500                       # Time in different power states
system.mem_ctrls0_1.memoryStateTime::ACT   2664517750                       # Time in different power states
system.mem_ctrls0_1.memoryStateTime::ACT_PDN   9456765250                       # Time in different power states
system.mem_ctrls1.pwrStateResidencyTicks::UNDEFINED  13351084500                       # Cumulative time (in ticks) in various power states
system.mem_ctrls1.bytes_read::ruby.dir_cntrl1      8670464                       # Number of bytes read from this memory
system.mem_ctrls1.bytes_read::total           8670464                       # Number of bytes read from this memory
system.mem_ctrls1.bytes_written::ruby.dir_cntrl1      1291456                       # Number of bytes written to this memory
system.mem_ctrls1.bytes_written::total        1291456                       # Number of bytes written to this memory
system.mem_ctrls1.num_reads::ruby.dir_cntrl1       135476                       # Number of read requests responded to by this memory
system.mem_ctrls1.num_reads::total             135476                       # Number of read requests responded to by this memory
system.mem_ctrls1.num_writes::ruby.dir_cntrl1        20179                       # Number of write requests responded to by this memory
system.mem_ctrls1.num_writes::total             20179                       # Number of write requests responded to by this memory
system.mem_ctrls1.bw_read::ruby.dir_cntrl1    649420203                       # Total read bandwidth from this memory (bytes/s)
system.mem_ctrls1.bw_read::total            649420203                       # Total read bandwidth from this memory (bytes/s)
system.mem_ctrls1.bw_write::ruby.dir_cntrl1     96730419                       # Write bandwidth from this memory (bytes/s)
system.mem_ctrls1.bw_write::total            96730419                       # Write bandwidth from this memory (bytes/s)
system.mem_ctrls1.bw_total::ruby.dir_cntrl1    746150622                       # Total bandwidth to/from this memory (bytes/s)
system.mem_ctrls1.bw_total::total           746150622                       # Total bandwidth to/from this memory (bytes/s)
system.mem_ctrls1.readReqs                     135476                       # Number of read requests accepted
system.mem_ctrls1.avgNetLat                      0.00                       # Average network latency to DRAM controller
system.mem_ctrls1.writeReqs                     20179                       # Number of write requests accepted
system.mem_ctrls1.readBursts                   135476                       # Number of DRAM read bursts, including those serviced by the write queue
system.mem_ctrls1.writeBursts                   20179                       # Number of DRAM write bursts, including those merged in the write queue
system.mem_ctrls1.bytesReadDRAM               8669184                       # Total number of bytes read from DRAM
system.mem_ctrls1.bytesReadWrQ                   1280                       # Total number of bytes read from write queue
system.mem_ctrls1.bytesWritten                1289472                       # Total number of bytes written to DRAM
system.mem_ctrls1.bytesReadSys                8670464                       # Total read bytes from the system interface side
system.mem_ctrls1.bytesWrittenSys             1291456                       # Total written bytes from the system interface side
system.mem_ctrls1.servicedByWrQ                    20                       # Number of DRAM read bursts serviced by the write queue
system.mem_ctrls1.mergedWrBursts                    0                       # Number of DRAM write bursts merged with an existing one
system.mem_ctrls1.neitherReadNorWriteReqs            0                       # Number of requests that are neither read nor write
system.mem_ctrls1.perBankRdBursts::0             8429                       # Per bank write bursts
system.mem_ctrls1.perBankRdBursts::1             8240                       # Per bank write bursts
system.mem_ctrls1.perBankRdBursts::2             8629                       # Per bank write bursts
system.mem_ctrls1.perBankRdBursts::3             8407                       # Per bank write bursts
system.mem_ctrls1.perBankRdBursts::4             8612                       # Per bank write bursts
system.mem_ctrls1.perBankRdBursts::5             8288                       # Per bank write bursts
system.mem_ctrls1.perBankRdBursts::6             8490                       # Per bank write bursts
system.mem_ctrls1.perBankRdBursts::7             8080                       # Per bank write bursts
system.mem_ctrls1.perBankRdBursts::8             8285                       # Per bank write bursts
system.mem_ctrls1.perBankRdBursts::9             8349                       # Per bank write bursts
system.mem_ctrls1.perBankRdBursts::10            8980                       # Per bank write bursts
system.mem_ctrls1.perBankRdBursts::11            8863                       # Per bank write bursts
system.mem_ctrls1.perBankRdBursts::12            8878                       # Per bank write bursts
system.mem_ctrls1.perBankRdBursts::13            8606                       # Per bank write bursts
system.mem_ctrls1.perBankRdBursts::14            8173                       # Per bank write bursts
system.mem_ctrls1.perBankRdBursts::15            8147                       # Per bank write bursts
system.mem_ctrls1.perBankWrBursts::0             1383                       # Per bank write bursts
system.mem_ctrls1.perBankWrBursts::1             1327                       # Per bank write bursts
system.mem_ctrls1.perBankWrBursts::2             1265                       # Per bank write bursts
system.mem_ctrls1.perBankWrBursts::3             1325                       # Per bank write bursts
system.mem_ctrls1.perBankWrBursts::4             1513                       # Per bank write bursts
system.mem_ctrls1.perBankWrBursts::5             1258                       # Per bank write bursts
system.mem_ctrls1.perBankWrBursts::6             1229                       # Per bank write bursts
system.mem_ctrls1.perBankWrBursts::7             1001                       # Per bank write bursts
system.mem_ctrls1.perBankWrBursts::8             1195                       # Per bank write bursts
system.mem_ctrls1.perBankWrBursts::9             1328                       # Per bank write bursts
system.mem_ctrls1.perBankWrBursts::10            1291                       # Per bank write bursts
system.mem_ctrls1.perBankWrBursts::11            1253                       # Per bank write bursts
system.mem_ctrls1.perBankWrBursts::12            1342                       # Per bank write bursts
system.mem_ctrls1.perBankWrBursts::13            1169                       # Per bank write bursts
system.mem_ctrls1.perBankWrBursts::14            1080                       # Per bank write bursts
system.mem_ctrls1.perBankWrBursts::15            1189                       # Per bank write bursts
system.mem_ctrls1.numRdRetry                        0                       # Number of times read queue was full causing retry
system.mem_ctrls1.numWrRetry                        0                       # Number of times write queue was full causing retry
system.mem_ctrls1.totGap                  13350624500                       # Total gap between requests
system.mem_ctrls1.readPktSize::0                    0                       # Read request sizes (log2)
system.mem_ctrls1.readPktSize::1                    0                       # Read request sizes (log2)
system.mem_ctrls1.readPktSize::2                    0                       # Read request sizes (log2)
system.mem_ctrls1.readPktSize::3                    0                       # Read request sizes (log2)
system.mem_ctrls1.readPktSize::4                    0                       # Read request sizes (log2)
system.mem_ctrls1.readPktSize::5                    0                       # Read request sizes (log2)
system.mem_ctrls1.readPktSize::6               135476                       # Read request sizes (log2)
system.mem_ctrls1.writePktSize::0                   0                       # Write request sizes (log2)
system.mem_ctrls1.writePktSize::1                   0                       # Write request sizes (log2)
system.mem_ctrls1.writePktSize::2                   0                       # Write request sizes (log2)
system.mem_ctrls1.writePktSize::3                   0                       # Write request sizes (log2)
system.mem_ctrls1.writePktSize::4                   0                       # Write request sizes (log2)
system.mem_ctrls1.writePktSize::5                   0                       # Write request sizes (log2)
system.mem_ctrls1.writePktSize::6               20179                       # Write request sizes (log2)
system.mem_ctrls1.rdQLenPdf::0                  65863                       # What read queue length does an incoming req see
system.mem_ctrls1.rdQLenPdf::1                  35153                       # What read queue length does an incoming req see
system.mem_ctrls1.rdQLenPdf::2                  18045                       # What read queue length does an incoming req see
system.mem_ctrls1.rdQLenPdf::3                   9280                       # What read queue length does an incoming req see
system.mem_ctrls1.rdQLenPdf::4                   4338                       # What read queue length does an incoming req see
system.mem_ctrls1.rdQLenPdf::5                   1782                       # What read queue length does an incoming req see
system.mem_ctrls1.rdQLenPdf::6                    685                       # What read queue length does an incoming req see
system.mem_ctrls1.rdQLenPdf::7                    236                       # What read queue length does an incoming req see
system.mem_ctrls1.rdQLenPdf::8                     64                       # What read queue length does an incoming req see
system.mem_ctrls1.rdQLenPdf::9                      9                       # What read queue length does an incoming req see
system.mem_ctrls1.rdQLenPdf::10                     1                       # What read queue length does an incoming req see
system.mem_ctrls1.rdQLenPdf::11                     0                       # What read queue length does an incoming req see
system.mem_ctrls1.rdQLenPdf::12                     0                       # What read queue length does an incoming req see
system.mem_ctrls1.rdQLenPdf::13                     0                       # What read queue length does an incoming req see
system.mem_ctrls1.rdQLenPdf::14                     0                       # What read queue length does an incoming req see
system.mem_ctrls1.rdQLenPdf::15                     0                       # What read queue length does an incoming req see
system.mem_ctrls1.rdQLenPdf::16                     0                       # What read queue length does an incoming req see
system.mem_ctrls1.rdQLenPdf::17                     0                       # What read queue length does an incoming req see
system.mem_ctrls1.rdQLenPdf::18                     0                       # What read queue length does an incoming req see
system.mem_ctrls1.rdQLenPdf::19                     0                       # What read queue length does an incoming req see
system.mem_ctrls1.rdQLenPdf::20                     0                       # What read queue length does an incoming req see
system.mem_ctrls1.rdQLenPdf::21                     0                       # What read queue length does an incoming req see
system.mem_ctrls1.rdQLenPdf::22                     0                       # What read queue length does an incoming req see
system.mem_ctrls1.rdQLenPdf::23                     0                       # What read queue length does an incoming req see
system.mem_ctrls1.rdQLenPdf::24                     0                       # What read queue length does an incoming req see
system.mem_ctrls1.rdQLenPdf::25                     0                       # What read queue length does an incoming req see
system.mem_ctrls1.rdQLenPdf::26                     0                       # What read queue length does an incoming req see
system.mem_ctrls1.rdQLenPdf::27                     0                       # What read queue length does an incoming req see
system.mem_ctrls1.rdQLenPdf::28                     0                       # What read queue length does an incoming req see
system.mem_ctrls1.rdQLenPdf::29                     0                       # What read queue length does an incoming req see
system.mem_ctrls1.rdQLenPdf::30                     0                       # What read queue length does an incoming req see
system.mem_ctrls1.rdQLenPdf::31                     0                       # What read queue length does an incoming req see
system.mem_ctrls1.wrQLenPdf::0                      1                       # What write queue length does an incoming req see
system.mem_ctrls1.wrQLenPdf::1                      1                       # What write queue length does an incoming req see
system.mem_ctrls1.wrQLenPdf::2                      1                       # What write queue length does an incoming req see
system.mem_ctrls1.wrQLenPdf::3                      1                       # What write queue length does an incoming req see
system.mem_ctrls1.wrQLenPdf::4                      1                       # What write queue length does an incoming req see
system.mem_ctrls1.wrQLenPdf::5                      1                       # What write queue length does an incoming req see
system.mem_ctrls1.wrQLenPdf::6                      1                       # What write queue length does an incoming req see
system.mem_ctrls1.wrQLenPdf::7                      1                       # What write queue length does an incoming req see
system.mem_ctrls1.wrQLenPdf::8                      1                       # What write queue length does an incoming req see
system.mem_ctrls1.wrQLenPdf::9                      1                       # What write queue length does an incoming req see
system.mem_ctrls1.wrQLenPdf::10                     1                       # What write queue length does an incoming req see
system.mem_ctrls1.wrQLenPdf::11                     1                       # What write queue length does an incoming req see
system.mem_ctrls1.wrQLenPdf::12                     1                       # What write queue length does an incoming req see
system.mem_ctrls1.wrQLenPdf::13                     1                       # What write queue length does an incoming req see
system.mem_ctrls1.wrQLenPdf::14                     1                       # What write queue length does an incoming req see
system.mem_ctrls1.wrQLenPdf::15                   468                       # What write queue length does an incoming req see
system.mem_ctrls1.wrQLenPdf::16                   517                       # What write queue length does an incoming req see
system.mem_ctrls1.wrQLenPdf::17                   862                       # What write queue length does an incoming req see
system.mem_ctrls1.wrQLenPdf::18                  1145                       # What write queue length does an incoming req see
system.mem_ctrls1.wrQLenPdf::19                  1208                       # What write queue length does an incoming req see
system.mem_ctrls1.wrQLenPdf::20                  1247                       # What write queue length does an incoming req see
system.mem_ctrls1.wrQLenPdf::21                  1229                       # What write queue length does an incoming req see
system.mem_ctrls1.wrQLenPdf::22                  1229                       # What write queue length does an incoming req see
system.mem_ctrls1.wrQLenPdf::23                  1225                       # What write queue length does an incoming req see
system.mem_ctrls1.wrQLenPdf::24                  1231                       # What write queue length does an incoming req see
system.mem_ctrls1.wrQLenPdf::25                  1224                       # What write queue length does an incoming req see
system.mem_ctrls1.wrQLenPdf::26                  1223                       # What write queue length does an incoming req see
system.mem_ctrls1.wrQLenPdf::27                  1221                       # What write queue length does an incoming req see
system.mem_ctrls1.wrQLenPdf::28                  1248                       # What write queue length does an incoming req see
system.mem_ctrls1.wrQLenPdf::29                  1239                       # What write queue length does an incoming req see
system.mem_ctrls1.wrQLenPdf::30                  1224                       # What write queue length does an incoming req see
system.mem_ctrls1.wrQLenPdf::31                  1202                       # What write queue length does an incoming req see
system.mem_ctrls1.wrQLenPdf::32                  1193                       # What write queue length does an incoming req see
system.mem_ctrls1.wrQLenPdf::33                    17                       # What write queue length does an incoming req see
system.mem_ctrls1.wrQLenPdf::34                     6                       # What write queue length does an incoming req see
system.mem_ctrls1.wrQLenPdf::35                     4                       # What write queue length does an incoming req see
system.mem_ctrls1.wrQLenPdf::36                     1                       # What write queue length does an incoming req see
system.mem_ctrls1.wrQLenPdf::37                     1                       # What write queue length does an incoming req see
system.mem_ctrls1.wrQLenPdf::38                     0                       # What write queue length does an incoming req see
system.mem_ctrls1.wrQLenPdf::39                     0                       # What write queue length does an incoming req see
system.mem_ctrls1.wrQLenPdf::40                     0                       # What write queue length does an incoming req see
system.mem_ctrls1.wrQLenPdf::41                     0                       # What write queue length does an incoming req see
system.mem_ctrls1.wrQLenPdf::42                     0                       # What write queue length does an incoming req see
system.mem_ctrls1.wrQLenPdf::43                     0                       # What write queue length does an incoming req see
system.mem_ctrls1.wrQLenPdf::44                     0                       # What write queue length does an incoming req see
system.mem_ctrls1.wrQLenPdf::45                     0                       # What write queue length does an incoming req see
system.mem_ctrls1.wrQLenPdf::46                     0                       # What write queue length does an incoming req see
system.mem_ctrls1.wrQLenPdf::47                     0                       # What write queue length does an incoming req see
system.mem_ctrls1.wrQLenPdf::48                     0                       # What write queue length does an incoming req see
system.mem_ctrls1.wrQLenPdf::49                     0                       # What write queue length does an incoming req see
system.mem_ctrls1.wrQLenPdf::50                     0                       # What write queue length does an incoming req see
system.mem_ctrls1.wrQLenPdf::51                     0                       # What write queue length does an incoming req see
system.mem_ctrls1.wrQLenPdf::52                     0                       # What write queue length does an incoming req see
system.mem_ctrls1.wrQLenPdf::53                     0                       # What write queue length does an incoming req see
system.mem_ctrls1.wrQLenPdf::54                     0                       # What write queue length does an incoming req see
system.mem_ctrls1.wrQLenPdf::55                     0                       # What write queue length does an incoming req see
system.mem_ctrls1.wrQLenPdf::56                     0                       # What write queue length does an incoming req see
system.mem_ctrls1.wrQLenPdf::57                     0                       # What write queue length does an incoming req see
system.mem_ctrls1.wrQLenPdf::58                     0                       # What write queue length does an incoming req see
system.mem_ctrls1.wrQLenPdf::59                     0                       # What write queue length does an incoming req see
system.mem_ctrls1.wrQLenPdf::60                     0                       # What write queue length does an incoming req see
system.mem_ctrls1.wrQLenPdf::61                     0                       # What write queue length does an incoming req see
system.mem_ctrls1.wrQLenPdf::62                     0                       # What write queue length does an incoming req see
system.mem_ctrls1.wrQLenPdf::63                     0                       # What write queue length does an incoming req see
system.mem_ctrls1.bytesPerActivate::samples        86421                       # Bytes accessed per row activation
system.mem_ctrls1.bytesPerActivate::mean   115.229771                       # Bytes accessed per row activation
system.mem_ctrls1.bytesPerActivate::gmean    88.663169                       # Bytes accessed per row activation
system.mem_ctrls1.bytesPerActivate::stdev   129.390864                       # Bytes accessed per row activation
system.mem_ctrls1.bytesPerActivate::0-127        61121     70.72%     70.72% # Bytes accessed per row activation
system.mem_ctrls1.bytesPerActivate::128-255        17214     19.92%     90.64% # Bytes accessed per row activation
system.mem_ctrls1.bytesPerActivate::256-383         3286      3.80%     94.45% # Bytes accessed per row activation
system.mem_ctrls1.bytesPerActivate::384-511         1719      1.99%     96.43% # Bytes accessed per row activation
system.mem_ctrls1.bytesPerActivate::512-639         1174      1.36%     97.79% # Bytes accessed per row activation
system.mem_ctrls1.bytesPerActivate::640-767         1268      1.47%     99.26% # Bytes accessed per row activation
system.mem_ctrls1.bytesPerActivate::768-895          119      0.14%     99.40% # Bytes accessed per row activation
system.mem_ctrls1.bytesPerActivate::896-1023           99      0.11%     99.51% # Bytes accessed per row activation
system.mem_ctrls1.bytesPerActivate::1024-1151          421      0.49%    100.00% # Bytes accessed per row activation
system.mem_ctrls1.bytesPerActivate::total        86421                       # Bytes accessed per row activation
system.mem_ctrls1.rdPerTurnAround::samples         1191                       # Reads before turning the bus around for writes
system.mem_ctrls1.rdPerTurnAround::mean    113.716205                       # Reads before turning the bus around for writes
system.mem_ctrls1.rdPerTurnAround::gmean    32.064464                       # Reads before turning the bus around for writes
system.mem_ctrls1.rdPerTurnAround::stdev  2000.564701                       # Reads before turning the bus around for writes
system.mem_ctrls1.rdPerTurnAround::0-4095         1190     99.92%     99.92% # Reads before turning the bus around for writes
system.mem_ctrls1.rdPerTurnAround::65536-69631            1      0.08%    100.00% # Reads before turning the bus around for writes
system.mem_ctrls1.rdPerTurnAround::total         1191                       # Reads before turning the bus around for writes
system.mem_ctrls1.wrPerTurnAround::samples         1191                       # Writes before turning the bus around for reads
system.mem_ctrls1.wrPerTurnAround::mean     16.916877                       # Writes before turning the bus around for reads
system.mem_ctrls1.wrPerTurnAround::gmean    16.882853                       # Writes before turning the bus around for reads
system.mem_ctrls1.wrPerTurnAround::stdev     1.085725                       # Writes before turning the bus around for reads
system.mem_ctrls1.wrPerTurnAround::16             662     55.58%     55.58% # Writes before turning the bus around for reads
system.mem_ctrls1.wrPerTurnAround::17              46      3.86%     59.45% # Writes before turning the bus around for reads
system.mem_ctrls1.wrPerTurnAround::18             413     34.68%     94.12% # Writes before turning the bus around for reads
system.mem_ctrls1.wrPerTurnAround::19              62      5.21%     99.33% # Writes before turning the bus around for reads
system.mem_ctrls1.wrPerTurnAround::20               7      0.59%     99.92% # Writes before turning the bus around for reads
system.mem_ctrls1.wrPerTurnAround::22               1      0.08%    100.00% # Writes before turning the bus around for reads
system.mem_ctrls1.wrPerTurnAround::total         1191                       # Writes before turning the bus around for reads
system.mem_ctrls1.totQLat                  3826872250                       # Total ticks spent queuing
system.mem_ctrls1.totMemAccLat             6366672250                       # Total ticks spent from burst creation until serviced by the DRAM
system.mem_ctrls1.totBusLat                 677280000                       # Total ticks spent in databus transfers
system.mem_ctrls1.avgQLat                    28251.77                       # Average queueing delay per DRAM burst
system.mem_ctrls1.avgBusLat                   5000.00                       # Average bus latency per DRAM burst
system.mem_ctrls1.avgMemAccLat               47001.77                       # Average memory access latency per DRAM burst
system.mem_ctrls1.avgRdBW                      649.32                       # Average DRAM read bandwidth in MiByte/s
system.mem_ctrls1.avgWrBW                       96.58                       # Average achieved write bandwidth in MiByte/s
system.mem_ctrls1.avgRdBWSys                   649.42                       # Average system read bandwidth in MiByte/s
system.mem_ctrls1.avgWrBWSys                    96.73                       # Average system write bandwidth in MiByte/s
system.mem_ctrls1.peakBW                     12800.00                       # Theoretical peak bandwidth in MiByte/s
system.mem_ctrls1.busUtil                        5.83                       # Data bus utilization in percentage
system.mem_ctrls1.busUtilRead                    5.07                       # Data bus utilization in percentage for reads
system.mem_ctrls1.busUtilWrite                   0.75                       # Data bus utilization in percentage for writes
system.mem_ctrls1.avgRdQLen                      1.55                       # Average read queue length when enqueuing
system.mem_ctrls1.avgWrQLen                     10.80                       # Average write queue length when enqueuing
system.mem_ctrls1.readRowHits                   63224                       # Number of row buffer hits during reads
system.mem_ctrls1.writeRowHits                   5955                       # Number of row buffer hits during writes
system.mem_ctrls1.readRowHitRate                46.67                       # Row buffer hit rate for reads
system.mem_ctrls1.writeRowHitRate               29.51                       # Row buffer hit rate for writes
system.mem_ctrls1.avgGap                     85770.61                       # Average gap between requests
system.mem_ctrls1.pageHitRate                   44.45                       # Row buffer hit rate, read and write combined
system.mem_ctrls1_0.actEnergy               307791120                       # Energy for activate commands per rank (pJ)
system.mem_ctrls1_0.preEnergy               163587270                       # Energy for precharge commands per rank (pJ)
system.mem_ctrls1_0.readEnergy              479629500                       # Energy for read commands per rank (pJ)
system.mem_ctrls1_0.writeEnergy              53771220                       # Energy for write commands per rank (pJ)
system.mem_ctrls1_0.refreshEnergy        1059024720.000000                       # Energy for refresh commands per rank (pJ)
system.mem_ctrls1_0.actBackEnergy          1400558970                       # Energy for active background per rank (pJ)
system.mem_ctrls1_0.preBackEnergy            25875360                       # Energy for precharge background per rank (pJ)
system.mem_ctrls1_0.actPowerDownEnergy     4269457320                       # Energy for active power-down per rank (pJ)
system.mem_ctrls1_0.prePowerDownEnergy      296538720                       # Energy for precharge power-down per rank (pJ)
system.mem_ctrls1_0.selfRefreshEnergy        29635710                       # Energy for self refresh per rank (pJ)
system.mem_ctrls1_0.totalEnergy            8085935760                       # Total energy per rank (pJ)
system.mem_ctrls1_0.averagePower           605.638850                       # Core power per rank (mW)
system.mem_ctrls1_0.totalIdleTime         10212570000                       # Total Idle time Per DRAM Rank
system.mem_ctrls1_0.memoryStateTime::IDLE     15378250                       # Time in different power states
system.mem_ctrls1_0.memoryStateTime::REF    448100000                       # Time in different power states
system.mem_ctrls1_0.memoryStateTime::SREF     77068500                       # Time in different power states
system.mem_ctrls1_0.memoryStateTime::PRE_PDN    772020750                       # Time in different power states
system.mem_ctrls1_0.memoryStateTime::ACT   2674900500                       # Time in different power states
system.mem_ctrls1_0.memoryStateTime::ACT_PDN   9363616500                       # Time in different power states
system.mem_ctrls1_1.actEnergy               309283380                       # Energy for activate commands per rank (pJ)
system.mem_ctrls1_1.preEnergy               164380425                       # Energy for precharge commands per rank (pJ)
system.mem_ctrls1_1.readEnergy              487526340                       # Energy for read commands per rank (pJ)
system.mem_ctrls1_1.writeEnergy              51401340                       # Energy for write commands per rank (pJ)
system.mem_ctrls1_1.refreshEnergy        1057180800.000000                       # Energy for refresh commands per rank (pJ)
system.mem_ctrls1_1.actBackEnergy          1380076020                       # Energy for active background per rank (pJ)
system.mem_ctrls1_1.preBackEnergy            25631520                       # Energy for precharge background per rank (pJ)
system.mem_ctrls1_1.actPowerDownEnergy     4316102130                       # Energy for active power-down per rank (pJ)
system.mem_ctrls1_1.prePowerDownEnergy      262386240                       # Energy for precharge power-down per rank (pJ)
system.mem_ctrls1_1.selfRefreshEnergy        37916250                       # Energy for self refresh per rank (pJ)
system.mem_ctrls1_1.totalEnergy            8092006155                       # Total energy per rank (pJ)
system.mem_ctrls1_1.averagePower           606.093524                       # Core power per rank (mW)
system.mem_ctrls1_1.totalIdleTime         10257561250                       # Total Idle time Per DRAM Rank
system.mem_ctrls1_1.memoryStateTime::IDLE     15372500                       # Time in different power states
system.mem_ctrls1_1.memoryStateTime::REF    447332000                       # Time in different power states
system.mem_ctrls1_1.memoryStateTime::SREF    109148750                       # Time in different power states
system.mem_ctrls1_1.memoryStateTime::PRE_PDN    683127500                       # Time in different power states
system.mem_ctrls1_1.memoryStateTime::ACT   2630384000                       # Time in different power states
system.mem_ctrls1_1.memoryStateTime::ACT_PDN   9465719750                       # Time in different power states
system.mem_ctrls2.pwrStateResidencyTicks::UNDEFINED  13351084500                       # Cumulative time (in ticks) in various power states
system.mem_ctrls2.bytes_read::ruby.dir_cntrl2      8585920                       # Number of bytes read from this memory
system.mem_ctrls2.bytes_read::total           8585920                       # Number of bytes read from this memory
system.mem_ctrls2.bytes_written::ruby.dir_cntrl2      1271104                       # Number of bytes written to this memory
system.mem_ctrls2.bytes_written::total        1271104                       # Number of bytes written to this memory
system.mem_ctrls2.num_reads::ruby.dir_cntrl2       134155                       # Number of read requests responded to by this memory
system.mem_ctrls2.num_reads::total             134155                       # Number of read requests responded to by this memory
system.mem_ctrls2.num_writes::ruby.dir_cntrl2        19861                       # Number of write requests responded to by this memory
system.mem_ctrls2.num_writes::total             19861                       # Number of write requests responded to by this memory
system.mem_ctrls2.bw_read::ruby.dir_cntrl2    643087833                       # Total read bandwidth from this memory (bytes/s)
system.mem_ctrls2.bw_read::total            643087833                       # Total read bandwidth from this memory (bytes/s)
system.mem_ctrls2.bw_write::ruby.dir_cntrl2     95206049                       # Write bandwidth from this memory (bytes/s)
system.mem_ctrls2.bw_write::total            95206049                       # Write bandwidth from this memory (bytes/s)
system.mem_ctrls2.bw_total::ruby.dir_cntrl2    738293882                       # Total bandwidth to/from this memory (bytes/s)
system.mem_ctrls2.bw_total::total           738293882                       # Total bandwidth to/from this memory (bytes/s)
system.mem_ctrls2.readReqs                     134155                       # Number of read requests accepted
system.mem_ctrls2.avgNetLat                      0.00                       # Average network latency to DRAM controller
system.mem_ctrls2.writeReqs                     19861                       # Number of write requests accepted
system.mem_ctrls2.readBursts                   134155                       # Number of DRAM read bursts, including those serviced by the write queue
system.mem_ctrls2.writeBursts                   19861                       # Number of DRAM write bursts, including those merged in the write queue
system.mem_ctrls2.bytesReadDRAM               8584896                       # Total number of bytes read from DRAM
system.mem_ctrls2.bytesReadWrQ                   1024                       # Total number of bytes read from write queue
system.mem_ctrls2.bytesWritten                1269632                       # Total number of bytes written to DRAM
system.mem_ctrls2.bytesReadSys                8585920                       # Total read bytes from the system interface side
system.mem_ctrls2.bytesWrittenSys             1271104                       # Total written bytes from the system interface side
system.mem_ctrls2.servicedByWrQ                    16                       # Number of DRAM read bursts serviced by the write queue
system.mem_ctrls2.mergedWrBursts                    0                       # Number of DRAM write bursts merged with an existing one
system.mem_ctrls2.neitherReadNorWriteReqs            0                       # Number of requests that are neither read nor write
system.mem_ctrls2.perBankRdBursts::0             8290                       # Per bank write bursts
system.mem_ctrls2.perBankRdBursts::1             8205                       # Per bank write bursts
system.mem_ctrls2.perBankRdBursts::2             8519                       # Per bank write bursts
system.mem_ctrls2.perBankRdBursts::3             8297                       # Per bank write bursts
system.mem_ctrls2.perBankRdBursts::4             8533                       # Per bank write bursts
system.mem_ctrls2.perBankRdBursts::5             8195                       # Per bank write bursts
system.mem_ctrls2.perBankRdBursts::6             8405                       # Per bank write bursts
system.mem_ctrls2.perBankRdBursts::7             8039                       # Per bank write bursts
system.mem_ctrls2.perBankRdBursts::8             8206                       # Per bank write bursts
system.mem_ctrls2.perBankRdBursts::9             8222                       # Per bank write bursts
system.mem_ctrls2.perBankRdBursts::10            8917                       # Per bank write bursts
system.mem_ctrls2.perBankRdBursts::11            8784                       # Per bank write bursts
system.mem_ctrls2.perBankRdBursts::12            8791                       # Per bank write bursts
system.mem_ctrls2.perBankRdBursts::13            8581                       # Per bank write bursts
system.mem_ctrls2.perBankRdBursts::14            8061                       # Per bank write bursts
system.mem_ctrls2.perBankRdBursts::15            8094                       # Per bank write bursts
system.mem_ctrls2.perBankWrBursts::0             1385                       # Per bank write bursts
system.mem_ctrls2.perBankWrBursts::1             1328                       # Per bank write bursts
system.mem_ctrls2.perBankWrBursts::2             1229                       # Per bank write bursts
system.mem_ctrls2.perBankWrBursts::3             1283                       # Per bank write bursts
system.mem_ctrls2.perBankWrBursts::4             1492                       # Per bank write bursts
system.mem_ctrls2.perBankWrBursts::5             1239                       # Per bank write bursts
system.mem_ctrls2.perBankWrBursts::6             1194                       # Per bank write bursts
system.mem_ctrls2.perBankWrBursts::7             1038                       # Per bank write bursts
system.mem_ctrls2.perBankWrBursts::8             1156                       # Per bank write bursts
system.mem_ctrls2.perBankWrBursts::9             1294                       # Per bank write bursts
system.mem_ctrls2.perBankWrBursts::10            1279                       # Per bank write bursts
system.mem_ctrls2.perBankWrBursts::11            1245                       # Per bank write bursts
system.mem_ctrls2.perBankWrBursts::12            1319                       # Per bank write bursts
system.mem_ctrls2.perBankWrBursts::13            1132                       # Per bank write bursts
system.mem_ctrls2.perBankWrBursts::14            1059                       # Per bank write bursts
system.mem_ctrls2.perBankWrBursts::15            1166                       # Per bank write bursts
system.mem_ctrls2.numRdRetry                        0                       # Number of times read queue was full causing retry
system.mem_ctrls2.numWrRetry                        0                       # Number of times write queue was full causing retry
system.mem_ctrls2.totGap                  13350211500                       # Total gap between requests
system.mem_ctrls2.readPktSize::0                    0                       # Read request sizes (log2)
system.mem_ctrls2.readPktSize::1                    0                       # Read request sizes (log2)
system.mem_ctrls2.readPktSize::2                    0                       # Read request sizes (log2)
system.mem_ctrls2.readPktSize::3                    0                       # Read request sizes (log2)
system.mem_ctrls2.readPktSize::4                    0                       # Read request sizes (log2)
system.mem_ctrls2.readPktSize::5                    0                       # Read request sizes (log2)
system.mem_ctrls2.readPktSize::6               134155                       # Read request sizes (log2)
system.mem_ctrls2.writePktSize::0                   0                       # Write request sizes (log2)
system.mem_ctrls2.writePktSize::1                   0                       # Write request sizes (log2)
system.mem_ctrls2.writePktSize::2                   0                       # Write request sizes (log2)
system.mem_ctrls2.writePktSize::3                   0                       # Write request sizes (log2)
system.mem_ctrls2.writePktSize::4                   0                       # Write request sizes (log2)
system.mem_ctrls2.writePktSize::5                   0                       # Write request sizes (log2)
system.mem_ctrls2.writePktSize::6               19861                       # Write request sizes (log2)
system.mem_ctrls2.rdQLenPdf::0                  66064                       # What read queue length does an incoming req see
system.mem_ctrls2.rdQLenPdf::1                  34497                       # What read queue length does an incoming req see
system.mem_ctrls2.rdQLenPdf::2                  17806                       # What read queue length does an incoming req see
system.mem_ctrls2.rdQLenPdf::3                   8951                       # What read queue length does an incoming req see
system.mem_ctrls2.rdQLenPdf::4                   4169                       # What read queue length does an incoming req see
system.mem_ctrls2.rdQLenPdf::5                   1735                       # What read queue length does an incoming req see
system.mem_ctrls2.rdQLenPdf::6                    619                       # What read queue length does an incoming req see
system.mem_ctrls2.rdQLenPdf::7                    218                       # What read queue length does an incoming req see
system.mem_ctrls2.rdQLenPdf::8                     62                       # What read queue length does an incoming req see
system.mem_ctrls2.rdQLenPdf::9                     16                       # What read queue length does an incoming req see
system.mem_ctrls2.rdQLenPdf::10                     2                       # What read queue length does an incoming req see
system.mem_ctrls2.rdQLenPdf::11                     0                       # What read queue length does an incoming req see
system.mem_ctrls2.rdQLenPdf::12                     0                       # What read queue length does an incoming req see
system.mem_ctrls2.rdQLenPdf::13                     0                       # What read queue length does an incoming req see
system.mem_ctrls2.rdQLenPdf::14                     0                       # What read queue length does an incoming req see
system.mem_ctrls2.rdQLenPdf::15                     0                       # What read queue length does an incoming req see
system.mem_ctrls2.rdQLenPdf::16                     0                       # What read queue length does an incoming req see
system.mem_ctrls2.rdQLenPdf::17                     0                       # What read queue length does an incoming req see
system.mem_ctrls2.rdQLenPdf::18                     0                       # What read queue length does an incoming req see
system.mem_ctrls2.rdQLenPdf::19                     0                       # What read queue length does an incoming req see
system.mem_ctrls2.rdQLenPdf::20                     0                       # What read queue length does an incoming req see
system.mem_ctrls2.rdQLenPdf::21                     0                       # What read queue length does an incoming req see
system.mem_ctrls2.rdQLenPdf::22                     0                       # What read queue length does an incoming req see
system.mem_ctrls2.rdQLenPdf::23                     0                       # What read queue length does an incoming req see
system.mem_ctrls2.rdQLenPdf::24                     0                       # What read queue length does an incoming req see
system.mem_ctrls2.rdQLenPdf::25                     0                       # What read queue length does an incoming req see
system.mem_ctrls2.rdQLenPdf::26                     0                       # What read queue length does an incoming req see
system.mem_ctrls2.rdQLenPdf::27                     0                       # What read queue length does an incoming req see
system.mem_ctrls2.rdQLenPdf::28                     0                       # What read queue length does an incoming req see
system.mem_ctrls2.rdQLenPdf::29                     0                       # What read queue length does an incoming req see
system.mem_ctrls2.rdQLenPdf::30                     0                       # What read queue length does an incoming req see
system.mem_ctrls2.rdQLenPdf::31                     0                       # What read queue length does an incoming req see
system.mem_ctrls2.wrQLenPdf::0                      1                       # What write queue length does an incoming req see
system.mem_ctrls2.wrQLenPdf::1                      1                       # What write queue length does an incoming req see
system.mem_ctrls2.wrQLenPdf::2                      1                       # What write queue length does an incoming req see
system.mem_ctrls2.wrQLenPdf::3                      1                       # What write queue length does an incoming req see
system.mem_ctrls2.wrQLenPdf::4                      1                       # What write queue length does an incoming req see
system.mem_ctrls2.wrQLenPdf::5                      1                       # What write queue length does an incoming req see
system.mem_ctrls2.wrQLenPdf::6                      1                       # What write queue length does an incoming req see
system.mem_ctrls2.wrQLenPdf::7                      1                       # What write queue length does an incoming req see
system.mem_ctrls2.wrQLenPdf::8                      1                       # What write queue length does an incoming req see
system.mem_ctrls2.wrQLenPdf::9                      1                       # What write queue length does an incoming req see
system.mem_ctrls2.wrQLenPdf::10                     1                       # What write queue length does an incoming req see
system.mem_ctrls2.wrQLenPdf::11                     1                       # What write queue length does an incoming req see
system.mem_ctrls2.wrQLenPdf::12                     1                       # What write queue length does an incoming req see
system.mem_ctrls2.wrQLenPdf::13                     1                       # What write queue length does an incoming req see
system.mem_ctrls2.wrQLenPdf::14                     1                       # What write queue length does an incoming req see
system.mem_ctrls2.wrQLenPdf::15                   462                       # What write queue length does an incoming req see
system.mem_ctrls2.wrQLenPdf::16                   517                       # What write queue length does an incoming req see
system.mem_ctrls2.wrQLenPdf::17                   859                       # What write queue length does an incoming req see
system.mem_ctrls2.wrQLenPdf::18                  1134                       # What write queue length does an incoming req see
system.mem_ctrls2.wrQLenPdf::19                  1192                       # What write queue length does an incoming req see
system.mem_ctrls2.wrQLenPdf::20                  1208                       # What write queue length does an incoming req see
[...]
system.ruby.L1Cache_Controller.MR.Load::total        48097                      
system.ruby.L1Cache_Controller.MR.Ifetch |         983     16.49%     16.49% |         187      3.14%     19.63% |         997     16.73%     36.35% |         169      2.84%     39.19% |         158      2.65%     41.84% |           0      0.00%     41.84% |           0      0.00%     41.84% |         223      3.74%     45.58% |         995     16.69%     62.27% |         201      3.37%     65.64% |         210      3.52%     69.17% |         223      3.74%     72.91% |         189      3.17%     76.08% |         200      3.36%     79.43% |         212      3.56%     82.99% |        1014     17.01%    100.00%
system.ruby.L1Cache_Controller.MR.Ifetch::total         5961                      
system.ruby.L1Cache_Controller.MR.Store  |           9      7.63%      7.63% |           9      7.63%     15.25% |           9      7.63%     22.88% |           9      7.63%     30.51% |           8      6.78%     37.29% |           0      0.00%     37.29% |           0      0.00%     37.29% |           9      7.63%     44.92% |           7      5.93%     50.85% |           7      5.93%     56.78% |           8      6.78%     63.56% |           9      7.63%     71.19% |           8      6.78%     77.97% |           8      6.78%     84.75% |           9      7.63%     92.37% |           9      7.63%    100.00%
system.ruby.L1Cache_Controller.MR.Store::total          118                      
system.ruby.L1Cache_Controller.MMR.Load  |        5353     29.07%     29.07% |        1052      5.71%     34.79% |        1066      5.79%     40.58% |        1097      5.96%     46.53% |        1161      6.31%     52.84% |           0      0.00%     52.84% |           0      0.00%     52.84% |         745      4.05%     56.89% |        1060      5.76%     62.64% |         977      5.31%     67.95% |         991      5.38%     73.33% |         928      5.04%     78.37% |         759      4.12%     82.50% |        1016      5.52%     88.01% |        1151      6.25%     94.26% |        1056      5.74%    100.00%
system.ruby.L1Cache_Controller.MMR.Load::total        18412                      
system.ruby.L1Cache_Controller.MMR.Store |         865      5.00%      5.00% |        1301      7.52%     12.52% |        1632      9.43%     21.95% |         798      4.61%     26.56% |        1279      7.39%     33.95% |           0      0.00%     33.95% |           0      0.00%     33.95% |         961      5.55%     39.51% |        1335      7.72%     47.22% |         688      3.98%     51.20% |        1586      9.17%     60.37% |        1471      8.50%     68.87% |         976      5.64%     74.51% |        1446      8.36%     82.86% |        1442      8.33%     91.20% |        1523      8.80%    100.00%
system.ruby.L1Cache_Controller.MMR.Store::total        17303                      
system.ruby.L1Cache_Controller.IM.Ack    |       37209      1.98%      1.98% |      160487      8.54%     10.52% |      154054      8.20%     18.71% |       37831      2.01%     20.72% |      163243      8.68%     29.41% |        6251      0.33%     29.74% |        6000      0.32%     30.06% |      157932      8.40%     38.46% |      162379      8.64%     47.10% |       37928      2.02%     49.12% |      156874      8.35%     57.46% |      159455      8.48%     65.94% |      158404      8.43%     74.37% |      160742      8.55%     82.92% |      160622      8.54%     91.47% |      160438      8.53%    100.00%
system.ruby.L1Cache_Controller.IM.Ack::total      1879849                      
system.ruby.L1Cache_Controller.IM.Exclusive_Data |        2498      1.99%      1.99% |       10717      8.52%     10.51% |       10285      8.18%     18.69% |        2539      2.02%     20.71% |       10901      8.67%     29.38% |         525      0.42%     29.80% |         525      0.42%     30.21% |       10541      8.38%     38.60% |       10836      8.62%     47.22% |        2545      2.02%     49.24% |       10469      8.33%     57.57% |       10639      8.46%     66.03% |       10570      8.41%     74.43% |       10727      8.53%     82.96% |       10717      8.52%     91.49% |       10703      8.51%    100.00%
system.ruby.L1Cache_Controller.IM.Exclusive_Data::total       125737                      
system.ruby.L1Cache_Controller.SM.Ack    |           6      5.77%      5.77% |           4      3.85%      9.62% |           5      4.81%     14.42% |           4      3.85%     18.27% |           3      2.88%     21.15% |           0      0.00%     21.15% |           0      0.00%     21.15% |           5      4.81%     25.96% |          13     12.50%     38.46% |           5      4.81%     43.27% |          10      9.62%     52.88% |          12     11.54%     64.42% |          11     10.58%     75.00% |           5      4.81%     79.81% |          13     12.50%     92.31% |           8      7.69%    100.00%
system.ruby.L1Cache_Controller.SM.Ack::total          104                      
system.ruby.L1Cache_Controller.SM.Data   |           1      7.14%      7.14% |           1      7.14%     14.29% |           1      7.14%     21.43% |           1      7.14%     28.57% |           1      7.14%     35.71% |           0      0.00%     35.71% |           0      0.00%     35.71% |           1      7.14%     42.86% |           1      7.14%     50.00% |           1      7.14%     57.14% |           1      7.14%     64.29% |           1      7.14%     71.43% |           1      7.14%     78.57% |           1      7.14%     85.71% |           1      7.14%     92.86% |           1      7.14%    100.00%
system.ruby.L1Cache_Controller.SM.Data::total           14                      
system.ruby.L1Cache_Controller.ISM.Ack   |           8      8.70%      8.70% |          10     10.87%     19.57% |           9      9.78%     29.35% |          10     10.87%     40.22% |          11     11.96%     52.17% |           0      0.00%     52.17% |           0      0.00%     52.17% |           9      9.78%     61.96% |           1      1.09%     63.04% |           9      9.78%     72.83% |           4      4.35%     77.17% |           2      2.17%     79.35% |           3      3.26%     82.61% |           9      9.78%     92.39% |           1      1.09%     93.48% |           6      6.52%    100.00%
system.ruby.L1Cache_Controller.ISM.Ack::total           92                      
system.ruby.L1Cache_Controller.ISM.All_acks_no_sharers |           1      7.14%      7.14% |           1      7.14%     14.29% |           1      7.14%     21.43% |           1      7.14%     28.57% |           1      7.14%     35.71% |           0      0.00%     35.71% |           0      0.00%     35.71% |           1      7.14%     42.86% |           1      7.14%     50.00% |           1      7.14%     57.14% |           1      7.14%     64.29% |           1      7.14%     71.43% |           1      7.14%     78.57% |           1      7.14%     85.71% |           1      7.14%     92.86% |           1      7.14%    100.00%
system.ruby.L1Cache_Controller.ISM.All_acks_no_sharers::total           14                      
system.ruby.L1Cache_Controller.M_W.Load  |           0      0.00%      0.00% |           0      0.00%      0.00% |           0      0.00%      0.00% |           0      0.00%      0.00% |           0      0.00%      0.00% |           0      0.00%      0.00% |           0      0.00%      0.00% |           0      0.00%      0.00% |           0      0.00%      0.00% |           0      0.00%      0.00% |           0      0.00%      0.00% |           0      0.00%      0.00% |           0      0.00%      0.00% |           0      0.00%      0.00% |           1    100.00%    100.00% |           0      0.00%    100.00%
system.ruby.L1Cache_Controller.M_W.Load::total            1                      
system.ruby.L1Cache_Controller.M_W.Ack   |         788      8.16%      8.16% |         635      6.58%     14.74% |         632      6.55%     21.28% |         691      7.16%     28.44% |         751      7.78%     36.22% |        1327     13.74%     49.96% |        1573     16.29%     66.26% |         470      4.87%     71.12% |         266      2.76%     73.88% |         621      6.43%     80.31% |         378      3.92%     84.23% |         252      2.61%     86.84% |         366      3.79%     90.63% |         407      4.22%     94.84% |         320      3.31%     98.16% |         178      1.84%    100.00%
system.ruby.L1Cache_Controller.M_W.Ack::total         9655                      
system.ruby.L1Cache_Controller.M_W.All_acks_no_sharers |       56362     13.52%     13.52% |       40640      9.75%     23.27% |       24655      5.91%     29.18% |       49180     11.80%     40.98% |       49339     11.84%     52.82% |         364      0.09%     52.91% |         364      0.09%     52.99% |        9520      2.28%     55.28% |       41342      9.92%     65.19% |        9519      2.28%     67.48% |       17119      4.11%     71.59% |       17395      4.17%     75.76% |        9519      2.28%     78.04% |       33051      7.93%     85.97% |       33263      7.98%     93.95% |       25220      6.05%    100.00%
system.ruby.L1Cache_Controller.M_W.All_acks_no_sharers::total       416852                      
system.ruby.L1Cache_Controller.MM_W.Store |           0      0.00%      0.00% |           1     50.00%     50.00% |           0      0.00%     50.00% |           0      0.00%     50.00% |           0      0.00%     50.00% |           0      0.00%     50.00% |           0      0.00%     50.00% |           0      0.00%     50.00% |           0      0.00%     50.00% |           0      0.00%     50.00% |           0      0.00%     50.00% |           0      0.00%     50.00% |           0      0.00%     50.00% |           1     50.00%    100.00% |           0      0.00%    100.00% |           0      0.00%    100.00%
system.ruby.L1Cache_Controller.MM_W.Store::total            2                      
system.ruby.L1Cache_Controller.MM_W.Ack  |         235      4.57%      4.57% |         242      4.71%      9.28% |         195      3.79%     13.07% |         228      4.43%     17.50% |         246      4.78%     22.29% |        1274     24.78%     47.06% |        1525     29.66%     76.72% |         157      3.05%     79.77% |         135      2.63%     82.40% |         221      4.30%     86.70% |         135      2.63%     89.32% |         104      2.02%     91.35% |         120      2.33%     93.68% |         137      2.66%     96.34% |         107      2.08%     98.42% |          81      1.58%    100.00%
system.ruby.L1Cache_Controller.MM_W.Ack::total         5142                      
system.ruby.L1Cache_Controller.MM_W.All_acks_no_sharers |        2498      1.99%      1.99% |       10717      8.52%     10.51% |       10285      8.18%     18.69% |        2539      2.02%     20.71% |       10901      8.67%     29.38% |         525      0.42%     29.80% |         525      0.42%     30.21% |       10541      8.38%     38.60% |       10836      8.62%     47.22% |        2545      2.02%     49.24% |       10469      8.33%     57.57% |       10639      8.46%     66.03% |       10570      8.41%     74.43% |       10727      8.53%     82.96% |       10717      8.52%     91.49% |       10703      8.51%    100.00%
system.ruby.L1Cache_Controller.MM_W.All_acks_no_sharers::total       125737                      
system.ruby.L1Cache_Controller.IS.Ack    |      844571     13.53%     13.53% |      608895      9.76%     23.29% |      369123      5.91%     29.20% |      736940     11.81%     41.01% |      739262     11.84%     52.85% |        3769      0.06%     52.91% |        3523      0.06%     52.97% |      142259      2.28%     55.25% |      619801      9.93%     65.18% |      142092      2.28%     67.46% |      256340      4.11%     71.56% |      260610      4.18%     75.74% |      142353      2.28%     78.02% |      495293      7.94%     85.95% |      498558      7.99%     93.94% |      378059      6.06%    100.00%
system.ruby.L1Cache_Controller.IS.Ack::total      6241448                      
system.ruby.L1Cache_Controller.IS.Shared_Data |           1      7.14%      7.14% |           1      7.14%     14.29% |           1      7.14%     21.43% |           1      7.14%     28.57% |           1      7.14%     35.71% |           0      0.00%     35.71% |           0      0.00%     35.71% |           1      7.14%     42.86% |           1      7.14%     50.00% |           1      7.14%     57.14% |           1      7.14%     64.29% |           1      7.14%     71.43% |           1      7.14%     78.57% |           1      7.14%     85.71% |           1      7.14%     92.86% |           1      7.14%    100.00%
system.ruby.L1Cache_Controller.IS.Shared_Data::total           14                      
system.ruby.L1Cache_Controller.IS.Exclusive_Data |       56362     13.52%     13.52% |       40640      9.75%     23.27% |       24655      5.91%     29.18% |       49180     11.80%     40.98% |       49339     11.84%     52.82% |         364      0.09%     52.91% |         364      0.09%     52.99% |        9520      2.28%     55.28% |       41342      9.92%     65.19% |        9519      2.28%     67.48% |       17119      4.11%     71.59% |       17395      4.17%     75.76% |        9519      2.28%     78.04% |       33051      7.93%     85.97% |       33263      7.98%     93.95% |       25220      6.05%    100.00%
system.ruby.L1Cache_Controller.IS.Exclusive_Data::total       416852                      
system.ruby.L1Cache_Controller.SS.Ack    |          10     10.53%     10.53% |           9      9.47%     20.00% |           9      9.47%     29.47% |           8      8.42%     37.89% |          11     11.58%     49.47% |           0      0.00%     49.47% |           0      0.00%     49.47% |          10     10.53%     60.00% |           2      2.11%     62.11% |          11     11.58%     73.68% |           6      6.32%     80.00% |           2      2.11%     82.11% |           5      5.26%     87.37% |           4      4.21%     91.58% |           6      6.32%     97.89% |           2      2.11%    100.00%
system.ruby.L1Cache_Controller.SS.Ack::total           95                      
system.ruby.L1Cache_Controller.SS.All_acks |           1      7.14%      7.14% |           1      7.14%     14.29% |           1      7.14%     21.43% |           1      7.14%     28.57% |           1      7.14%     35.71% |           0      0.00%     35.71% |           0      0.00%     35.71% |           1      7.14%     42.86% |           1      7.14%     50.00% |           1      7.14%     57.14% |           1      7.14%     64.29% |           1      7.14%     71.43% |           1      7.14%     78.57% |           1      7.14%     85.71% |           1      7.14%     92.86% |           1      7.14%    100.00%
system.ruby.L1Cache_Controller.SS.All_acks::total           14                      
system.ruby.L1Cache_Controller.MI.Load   |          17     28.81%     28.81% |           2      3.39%     32.20% |           2      3.39%     35.59% |           8     13.56%     49.15% |           3      5.08%     54.24% |           0      0.00%     54.24% |           0      0.00%     54.24% |           0      0.00%     54.24% |          10     16.95%     71.19% |           0      0.00%     71.19% |           1      1.69%     72.88% |           1      1.69%     74.58% |           0      0.00%     74.58% |          10     16.95%     91.53% |           3      5.08%     96.61% |           2      3.39%    100.00%
system.ruby.L1Cache_Controller.MI.Load::total           59                      
system.ruby.L1Cache_Controller.MI.Ifetch |           0      0.00%      0.00% |           0      0.00%      0.00% |           1     25.00%     25.00% |           1     25.00%     50.00% |           0      0.00%     50.00% |           0      0.00%     50.00% |           0      0.00%     50.00% |           0      0.00%     50.00% |           0      0.00%     50.00% |           0      0.00%     50.00% |           0      0.00%     50.00% |           0      0.00%     50.00% |           0      0.00%     50.00% |           0      0.00%     50.00% |           2     50.00%    100.00% |           0      0.00%    100.00%
system.ruby.L1Cache_Controller.MI.Ifetch::total            4                      
system.ruby.L1Cache_Controller.MI.Store  |           0      0.00%      0.00% |           4     28.57%     28.57% |           0      0.00%     28.57% |           0      0.00%     28.57% |           0      0.00%     28.57% |           0      0.00%     28.57% |           0      0.00%     28.57% |           0      0.00%     28.57% |           5     35.71%     64.29% |           0      0.00%     64.29% |           0      0.00%     64.29% |           0      0.00%     64.29% |           0      0.00%     64.29% |           2     14.29%     78.57% |           2     14.29%     92.86% |           1      7.14%    100.00%
system.ruby.L1Cache_Controller.MI.Store::total           14                      
system.ruby.L1Cache_Controller.MI.Writeback_Ack |       24662     19.04%     19.04% |       17079     13.18%     32.22% |        2472      1.91%     34.13% |       17502     13.51%     47.64% |       25921     20.01%     67.65% |           0      0.00%     67.65% |           0      0.00%     67.65% |          26      0.02%     67.67% |       17910     13.83%     81.50% |           0      0.00%     81.50% |         509      0.39%     81.89% |         295      0.23%     82.12% |          22      0.02%     82.13% |        9721      7.50%     89.64% |        9918      7.66%     97.29% |        3507      2.71%    100.00%
system.ruby.L1Cache_Controller.MI.Writeback_Ack::total       129544                      
system.ruby.L1Cache_Controller.MT.Complete_L2_to_L1 |        4501      8.31%      8.31% |        3584      6.62%     14.92% |        4423      8.16%     23.09% |        3499      6.46%     29.55% |        3500      6.46%     36.01% |           0      0.00%     36.01% |           0      0.00%     36.01% |        3644      6.73%     42.73% |        4354      8.04%     50.77% |        3698      6.83%     57.60% |        3756      6.93%     64.53% |        3608      6.66%     71.19% |        3671      6.78%     77.96% |        3656      6.75%     84.71% |        3801      7.02%     91.73% |        4481      8.27%    100.00%
system.ruby.L1Cache_Controller.MT.Complete_L2_to_L1::total        54176                      
system.ruby.L1Cache_Controller.MMT.Store |           1    100.00%    100.00% |           0      0.00%    100.00% |           0      0.00%    100.00% |           0      0.00%    100.00% |           0      0.00%    100.00% |           0      0.00%    100.00% |           0      0.00%    100.00% |           0      0.00%    100.00% |           0      0.00%    100.00% |           0      0.00%    100.00% |           0      0.00%    100.00% |           0      0.00%    100.00% |           0      0.00%    100.00% |           0      0.00%    100.00% |           0      0.00%    100.00% |           0      0.00%    100.00%
system.ruby.L1Cache_Controller.MMT.Store::total            1                      
system.ruby.L1Cache_Controller.MMT.Complete_L2_to_L1 |        6218     17.41%     17.41% |        2353      6.59%     24.00% |        2698      7.55%     31.55% |        1895      5.31%     36.86% |        2440      6.83%     43.69% |           0      0.00%     43.69% |           0      0.00%     43.69% |        1706      4.78%     48.47% |        2395      6.71%     55.17% |        1665      4.66%     59.83% |        2577      7.22%     67.05% |        2399      6.72%     73.77% |        1735      4.86%     78.63% |        2462      6.89%     85.52% |        2593      7.26%     92.78% |        2579      7.22%    100.00%
system.ruby.L1Cache_Controller.MMT.Complete_L2_to_L1::total        35715                      

---------- End Simulation Statistics   ----------
