
---------- Begin Simulation Statistics ----------
sim_seconds                                  0.014529                       # Number of seconds simulated
sim_ticks                                 14528615000                       # Number of ticks simulated
final_tick                                14528615000                       # Number of ticks from beginning of simulation (restored from checkpoints and never reset)
sim_freq                                 1000000000000                       # Frequency of simulated ticks
host_inst_rate                                  37699                       # Simulator instruction rate (inst/s)
host_op_rate                                    64968                       # Simulator op (including micro ops) rate (op/s)
host_tick_rate                               10982751                       # Simulator tick rate (ticks/s)
host_mem_usage                                2276156                       # Number of bytes of host memory used
host_seconds                                  1322.86                       # Real time elapsed on the host
sim_insts                                    49870276                       # Number of instructions simulated
sim_ops                                      85943155                       # Number of ops (including micro ops) simulated
system.voltage_domain.voltage                       1                       # Voltage in Volts
system.clk_domain.clock                          1000                       # Clock period in ticks
system.mem_ctrls0.pwrStateResidencyTicks::UNDEFINED  14528615000                       # Cumulative time (in ticks) in various power states
system.mem_ctrls0.bytes_read::ruby.dir_cntrl0      2459136                       # Number of bytes read from this memory
system.mem_ctrls0.bytes_read::total           2459136                       # Number of bytes read from this memory
system.mem_ctrls0.bytes_written::ruby.dir_cntrl0         1152                       # Number of bytes written to this memory
system.mem_ctrls0.bytes_written::total           1152                       # Number of bytes written to this memory
system.mem_ctrls0.num_reads::ruby.dir_cntrl0        38424                       # Number of read requests responded to by this memory
system.mem_ctrls0.num_reads::total              38424                       # Number of read requests responded to by this memory
system.mem_ctrls0.num_writes::ruby.dir_cntrl0           18                       # Number of write requests responded to by this memory
system.mem_ctrls0.num_writes::total                18                       # Number of write requests responded to by this memory
system.mem_ctrls0.bw_read::ruby.dir_cntrl0    169261557                       # Total read bandwidth from this memory (bytes/s)
system.mem_ctrls0.bw_read::total            169261557                       # Total read bandwidth from this memory (bytes/s)
system.mem_ctrls0.bw_write::ruby.dir_cntrl0        79292                       # Write bandwidth from this memory (bytes/s)
system.mem_ctrls0.bw_write::total               79292                       # Write bandwidth from this memory (bytes/s)
system.mem_ctrls0.bw_total::ruby.dir_cntrl0    169340849                       # Total bandwidth to/from this memory (bytes/s)
system.mem_ctrls0.bw_total::total           169340849                       # Total bandwidth to/from this memory (bytes/s)
system.mem_ctrls0.readReqs                      38424                       # Number of read requests accepted
system.mem_ctrls0.writeReqs                        18                       # Number of write requests accepted
system.mem_ctrls0.readBursts                    38424                       # Number of DRAM read bursts, including those serviced by the write queue
system.mem_ctrls0.writeBursts                      18                       # Number of DRAM write bursts, including those merged in the write queue
system.mem_ctrls0.bytesReadDRAM               2459072                       # Total number of bytes read from DRAM
system.mem_ctrls0.bytesReadWrQ                     64                       # Total number of bytes read from write queue
system.mem_ctrls0.bytesWritten                      0                       # Total number of bytes written to DRAM
system.mem_ctrls0.bytesReadSys                2459136                       # Total read bytes from the system interface side
system.mem_ctrls0.bytesWrittenSys                1152                       # Total written bytes from the system interface side
system.mem_ctrls0.servicedByWrQ                     1                       # Number of DRAM read bursts serviced by the write queue
system.mem_ctrls0.mergedWrBursts                    0                       # Number of DRAM write bursts merged with an existing one
system.mem_ctrls0.neitherReadNorWriteReqs            0                       # Number of requests that are neither read nor write
system.mem_ctrls0.perBankRdBursts::0             2514                       # Per bank write bursts
system.mem_ctrls0.perBankRdBursts::1             2517                       # Per bank write bursts
system.mem_ctrls0.perBankRdBursts::2             2279                       # Per bank write bursts
system.mem_ctrls0.perBankRdBursts::3             2455                       # Per bank write bursts
system.mem_ctrls0.perBankRdBursts::4             2384                       # Per bank write bursts
system.mem_ctrls0.perBankRdBursts::5             1993                       # Per bank write bursts
system.mem_ctrls0.perBankRdBursts::6             2467                       # Per bank write bursts
system.mem_ctrls0.perBankRdBursts::7             2324                       # Per bank write bursts
system.mem_ctrls0.perBankRdBursts::8             1798                       # Per bank write bursts
system.mem_ctrls0.perBankRdBursts::9             2053                       # Per bank write bursts
system.mem_ctrls0.perBankRdBursts::10            2244                       # Per bank write bursts
system.mem_ctrls0.perBankRdBursts::11            2390                       # Per bank write bursts
system.mem_ctrls0.perBankRdBursts::12            2626                       # Per bank write bursts
system.mem_ctrls0.perBankRdBursts::13            2754                       # Per bank write bursts
system.mem_ctrls0.perBankRdBursts::14            2746                       # Per bank write bursts
system.mem_ctrls0.perBankRdBursts::15            2879                       # Per bank write bursts
system.mem_ctrls0.perBankWrBursts::0                0                       # Per bank write bursts
system.mem_ctrls0.perBankWrBursts::1                0                       # Per bank write bursts
system.mem_ctrls0.perBankWrBursts::2                0                       # Per bank write bursts
system.mem_ctrls0.perBankWrBursts::3                0                       # Per bank write bursts
system.mem_ctrls0.perBankWrBursts::4                0                       # Per bank write bursts
system.mem_ctrls0.perBankWrBursts::5                0                       # Per bank write bursts
system.mem_ctrls0.perBankWrBursts::6                0                       # Per bank write bursts
system.mem_ctrls0.perBankWrBursts::7                0                       # Per bank write bursts
system.mem_ctrls0.perBankWrBursts::8                0                       # Per bank write bursts
system.mem_ctrls0.perBankWrBursts::9                0                       # Per bank write bursts
system.mem_ctrls0.perBankWrBursts::10               0                       # Per bank write bursts
system.mem_ctrls0.perBankWrBursts::11               0                       # Per bank write bursts
system.mem_ctrls0.perBankWrBursts::12               0                       # Per bank write bursts
system.mem_ctrls0.perBankWrBursts::13               0                       # Per bank write bursts
system.mem_ctrls0.perBankWrBursts::14               0                       # Per bank write bursts
system.mem_ctrls0.perBankWrBursts::15               0                       # Per bank write bursts
system.mem_ctrls0.numRdRetry                        0                       # Number of times read queue was full causing retry
system.mem_ctrls0.numWrRetry                        0                       # Number of times write queue was full causing retry
system.mem_ctrls0.totGap                  14527264000                       # Total gap between requests
system.mem_ctrls0.readPktSize::0                    0                       # Read request sizes (log2)
system.mem_ctrls0.readPktSize::1                    0                       # Read request sizes (log2)
system.mem_ctrls0.readPktSize::2                    0                       # Read request sizes (log2)
system.mem_ctrls0.readPktSize::3                    0                       # Read request sizes (log2)
system.mem_ctrls0.readPktSize::4                    0                       # Read request sizes (log2)
system.mem_ctrls0.readPktSize::5                    0                       # Read request sizes (log2)
system.mem_ctrls0.readPktSize::6                38424                       # Read request sizes (log2)
system.mem_ctrls0.writePktSize::0                   0                       # Write request sizes (log2)
system.mem_ctrls0.writePktSize::1                   0                       # Write request sizes (log2)
system.mem_ctrls0.writePktSize::2                   0                       # Write request sizes (log2)
system.mem_ctrls0.writePktSize::3                   0                       # Write request sizes (log2)
system.mem_ctrls0.writePktSize::4                   0                       # Write request sizes (log2)
system.mem_ctrls0.writePktSize::5                   0                       # Write request sizes (log2)
system.mem_ctrls0.writePktSize::6                  18                       # Write request sizes (log2)
system.mem_ctrls0.rdQLenPdf::0                  27613                       # What read queue length does an incoming req see
system.mem_ctrls0.rdQLenPdf::1                   7423                       # What read queue length does an incoming req see
system.mem_ctrls0.rdQLenPdf::2                   2098                       # What read queue length does an incoming req see
system.mem_ctrls0.rdQLenPdf::3                    688                       # What read queue length does an incoming req see
system.mem_ctrls0.rdQLenPdf::4                    271                       # What read queue length does an incoming req see
system.mem_ctrls0.rdQLenPdf::5                    128                       # What read queue length does an incoming req see
system.mem_ctrls0.rdQLenPdf::6                     68                       # What read queue length does an incoming req see
system.mem_ctrls0.rdQLenPdf::7                     31                       # What read queue length does an incoming req see
system.mem_ctrls0.rdQLenPdf::8                     27                       # What read queue length does an incoming req see
system.mem_ctrls0.rdQLenPdf::9                     22                       # What read queue length does an incoming req see
system.mem_ctrls0.rdQLenPdf::10                    18                       # What read queue length does an incoming req see
system.mem_ctrls0.rdQLenPdf::11                    18                       # What read queue length does an incoming req see
system.mem_ctrls0.rdQLenPdf::12                    18                       # What read queue length does an incoming req see
system.mem_ctrls0.rdQLenPdf::13                     0                       # What read queue length does an incoming req see
system.mem_ctrls0.rdQLenPdf::14                     0                       # What read queue length does an incoming req see
system.mem_ctrls0.rdQLenPdf::15                     0                       # What read queue length does an incoming req see
system.mem_ctrls0.rdQLenPdf::16                     0                       # What read queue length does an incoming req see
system.mem_ctrls0.rdQLenPdf::17                     0                       # What read queue length does an incoming req see
system.mem_ctrls0.rdQLenPdf::18                     0                       # What read queue length does an incoming req see
system.mem_ctrls0.rdQLenPdf::19                     0                       # What read queue length does an incoming req see
system.mem_ctrls0.rdQLenPdf::20                     0                       # What read queue length does an incoming req see
system.mem_ctrls0.rdQLenPdf::21                     0                       # What read queue length does an incoming req see
system.mem_ctrls0.rdQLenPdf::22                     0                       # What read queue length does an incoming req see
system.mem_ctrls0.rdQLenPdf::23                     0                       # What read queue length does an incoming req see
system.mem_ctrls0.rdQLenPdf::24                     0                       # What read queue length does an incoming req see
system.mem_ctrls0.rdQLenPdf::25                     0                       # What read queue length does an incoming req see
system.mem_ctrls0.rdQLenPdf::26                     0                       # What read queue length does an incoming req see
system.mem_ctrls0.rdQLenPdf::27                     0                       # What read queue length does an incoming req see
system.mem_ctrls0.rdQLenPdf::28                     0                       # What read queue length does an incoming req see
system.mem_ctrls0.rdQLenPdf::29                     0                       # What read queue length does an incoming req see
system.mem_ctrls0.rdQLenPdf::30                     0                       # What read queue length does an incoming req see
system.mem_ctrls0.rdQLenPdf::31                     0                       # What read queue length does an incoming req see
system.mem_ctrls0.wrQLenPdf::0                      1                       # What write queue length does an incoming req see
system.mem_ctrls0.wrQLenPdf::1                      1                       # What write queue length does an incoming req see
system.mem_ctrls0.wrQLenPdf::2                      1                       # What write queue length does an incoming req see
system.mem_ctrls0.wrQLenPdf::3                      1                       # What write queue length does an incoming req see
system.mem_ctrls0.wrQLenPdf::4                      1                       # What write queue length does an incoming req see
system.mem_ctrls0.wrQLenPdf::5                      1                       # What write queue length does an incoming req see
system.mem_ctrls0.wrQLenPdf::6                      1                       # What write queue length does an incoming req see
system.mem_ctrls0.wrQLenPdf::7                      1                       # What write queue length does an incoming req see
system.mem_ctrls0.wrQLenPdf::8                      1                       # What write queue length does an incoming req see
system.mem_ctrls0.wrQLenPdf::9                      1                       # What write queue length does an incoming req see
system.mem_ctrls0.wrQLenPdf::10                     1                       # What write queue length does an incoming req see
system.mem_ctrls0.wrQLenPdf::11                     1                       # What write queue length does an incoming req see
system.mem_ctrls0.wrQLenPdf::12                     1                       # What write queue length does an incoming req see
system.mem_ctrls0.wrQLenPdf::13                     1                       # What write queue length does an incoming req see
system.mem_ctrls0.wrQLenPdf::14                     1                       # What write queue length does an incoming req see
system.mem_ctrls0.wrQLenPdf::15                     1                       # What write queue length does an incoming req see
system.mem_ctrls0.wrQLenPdf::16                     1                       # What write queue length does an incoming req see
system.mem_ctrls0.wrQLenPdf::17                     1                       # What write queue length does an incoming req see
system.mem_ctrls0.wrQLenPdf::18                     0                       # What write queue length does an incoming req see
system.mem_ctrls0.wrQLenPdf::19                     0                       # What write queue length does an incoming req see
system.mem_ctrls0.wrQLenPdf::20                     0                       # What write queue length does an incoming req see
system.mem_ctrls0.wrQLenPdf::21                     0                       # What write queue length does an incoming req see
system.mem_ctrls0.wrQLenPdf::22                     0                       # What write queue length does an incoming req see
system.mem_ctrls0.wrQLenPdf::23                     0                       # What write queue length does an incoming req see
system.mem_ctrls0.wrQLenPdf::24                     0                       # What write queue length does an incoming req see
system.mem_ctrls0.wrQLenPdf::25                     0                       # What write queue length does an incoming req see
system.mem_ctrls0.wrQLenPdf::26                     0                       # What write queue length does an incoming req see
system.mem_ctrls0.wrQLenPdf::27                     0                       # What write queue length does an incoming req see
system.mem_ctrls0.wrQLenPdf::28                     0                       # What write queue length does an incoming req see
system.mem_ctrls0.wrQLenPdf::29                     0                       # What write queue length does an incoming req see
system.mem_ctrls0.wrQLenPdf::30                     0                       # What write queue length does an incoming req see
system.mem_ctrls0.wrQLenPdf::31                     0                       # What write queue length does an incoming req see
system.mem_ctrls0.wrQLenPdf::32                     0                       # What write queue length does an incoming req see
system.mem_ctrls0.wrQLenPdf::33                     0                       # What write queue length does an incoming req see
system.mem_ctrls0.wrQLenPdf::34                     0                       # What write queue length does an incoming req see
system.mem_ctrls0.wrQLenPdf::35                     0                       # What write queue length does an incoming req see
system.mem_ctrls0.wrQLenPdf::36                     0                       # What write queue length does an incoming req see
system.mem_ctrls0.wrQLenPdf::37                     0                       # What write queue length does an incoming req see
system.mem_ctrls0.wrQLenPdf::38                     0                       # What write queue length does an incoming req see
system.mem_ctrls0.wrQLenPdf::39                     0                       # What write queue length does an incoming req see
system.mem_ctrls0.wrQLenPdf::40                     0                       # What write queue length does an incoming req see
system.mem_ctrls0.wrQLenPdf::41                     0                       # What write queue length does an incoming req see
system.mem_ctrls0.wrQLenPdf::42                     0                       # What write queue length does an incoming req see
system.mem_ctrls0.wrQLenPdf::43                     0                       # What write queue length does an incoming req see
system.mem_ctrls0.wrQLenPdf::44                     0                       # What write queue length does an incoming req see
system.mem_ctrls0.wrQLenPdf::45                     0                       # What write queue length does an incoming req see
system.mem_ctrls0.wrQLenPdf::46                     0                       # What write queue length does an incoming req see
system.mem_ctrls0.wrQLenPdf::47                     0                       # What write queue length does an incoming req see
system.mem_ctrls0.wrQLenPdf::48                     0                       # What write queue length does an incoming req see
system.mem_ctrls0.wrQLenPdf::49                     0                       # What write queue length does an incoming req see
system.mem_ctrls0.wrQLenPdf::50                     0                       # What write queue length does an incoming req see
system.mem_ctrls0.wrQLenPdf::51                     0                       # What write queue length does an incoming req see
system.mem_ctrls0.wrQLenPdf::52                     0                       # What write queue length does an incoming req see
system.mem_ctrls0.wrQLenPdf::53                     0                       # What write queue length does an incoming req see
system.mem_ctrls0.wrQLenPdf::54                     0                       # What write queue length does an incoming req see
system.mem_ctrls0.wrQLenPdf::55                     0                       # What write queue length does an incoming req see
system.mem_ctrls0.wrQLenPdf::56                     0                       # What write queue length does an incoming req see
system.mem_ctrls0.wrQLenPdf::57                     0                       # What write queue length does an incoming req see
system.mem_ctrls0.wrQLenPdf::58                     0                       # What write queue length does an incoming req see
system.mem_ctrls0.wrQLenPdf::59                     0                       # What write queue length does an incoming req see
system.mem_ctrls0.wrQLenPdf::60                     0                       # What write queue length does an incoming req see
system.mem_ctrls0.wrQLenPdf::61                     0                       # What write queue length does an incoming req see
system.mem_ctrls0.wrQLenPdf::62                     0                       # What write queue length does an incoming req see
system.mem_ctrls0.wrQLenPdf::63                     0                       # What write queue length does an incoming req see
system.mem_ctrls0.bytesPerActivate::samples        21676                       # Bytes accessed per row activation
system.mem_ctrls0.bytesPerActivate::mean   113.431999                       # Bytes accessed per row activation
system.mem_ctrls0.bytesPerActivate::gmean    83.502543                       # Bytes accessed per row activation
system.mem_ctrls0.bytesPerActivate::stdev   131.172422                       # Bytes accessed per row activation
system.mem_ctrls0.bytesPerActivate::0-127        17844     82.32%     82.32% # Bytes accessed per row activation
system.mem_ctrls0.bytesPerActivate::128-255         1507      6.95%     89.27% # Bytes accessed per row activation
system.mem_ctrls0.bytesPerActivate::256-383          363      1.67%     90.95% # Bytes accessed per row activation
system.mem_ctrls0.bytesPerActivate::384-511          311      1.43%     92.38% # Bytes accessed per row activation
system.mem_ctrls0.bytesPerActivate::512-639         1584      7.31%     99.69% # Bytes accessed per row activation
system.mem_ctrls0.bytesPerActivate::640-767           56      0.26%     99.95% # Bytes accessed per row activation
system.mem_ctrls0.bytesPerActivate::768-895            3      0.01%     99.96% # Bytes accessed per row activation
system.mem_ctrls0.bytesPerActivate::1024-1151            8      0.04%    100.00% # Bytes accessed per row activation
system.mem_ctrls0.bytesPerActivate::total        21676                       # Bytes accessed per row activation
system.mem_ctrls0.totQLat                  1234342500                       # Total ticks spent queuing
system.mem_ctrls0.totMemAccLat             1954773750                       # Total ticks spent from burst creation until serviced by the DRAM
system.mem_ctrls0.totBusLat                 192115000                       # Total ticks spent in databus transfers
system.mem_ctrls0.avgQLat                    32125.09                       # Average queueing delay per DRAM burst
system.mem_ctrls0.avgBusLat                   5000.00                       # Average bus latency per DRAM burst
system.mem_ctrls0.avgMemAccLat               50875.09                       # Average memory access latency per DRAM burst
system.mem_ctrls0.avgRdBW                      169.26                       # Average DRAM read bandwidth in MiByte/s
system.mem_ctrls0.avgWrBW                        0.00                       # Average achieved write bandwidth in MiByte/s
system.mem_ctrls0.avgRdBWSys                   169.26                       # Average system read bandwidth in MiByte/s
system.mem_ctrls0.avgWrBWSys                     0.08                       # Average system write bandwidth in MiByte/s
system.mem_ctrls0.peakBW                     12800.00                       # Theoretical peak bandwidth in MiByte/s
system.mem_ctrls0.busUtil                        1.32                       # Data bus utilization in percentage
system.mem_ctrls0.busUtilRead                    1.32                       # Data bus utilization in percentage for reads
system.mem_ctrls0.busUtilWrite                   0.00                       # Data bus utilization in percentage for writes
system.mem_ctrls0.avgRdQLen                      1.56                       # Average read queue length when enqueuing
system.mem_ctrls0.avgWrQLen                      2.00                       # Average write queue length when enqueuing
system.mem_ctrls0.readRowHits                   16745                       # Number of row buffer hits during reads
system.mem_ctrls0.writeRowHits                      0                       # Number of row buffer hits during writes
system.mem_ctrls0.readRowHitRate                43.58                       # Row buffer hit rate for reads
system.mem_ctrls0.writeRowHitRate                0.00                       # Row buffer hit rate for writes
system.mem_ctrls0.avgGap                    377900.84                       # Average gap between requests
system.mem_ctrls0.pageHitRate                   43.56                       # Row buffer hit rate, read and write combined
system.mem_ctrls0_0.actEnergy                77583240                       # Energy for activate commands per rank (pJ)
system.mem_ctrls0_0.preEnergy                41228880                       # Energy for precharge commands per rank (pJ)
system.mem_ctrls0_0.readEnergy              135181620                       # Energy for read commands per rank (pJ)
system.mem_ctrls0_0.writeEnergy                     0                       # Energy for write commands per rank (pJ)
system.mem_ctrls0_0.refreshEnergy        1043658720.000000                       # Energy for refresh commands per rank (pJ)
system.mem_ctrls0_0.actBackEnergy           465300120                       # Energy for active background per rank (pJ)
system.mem_ctrls0_0.preBackEnergy            29349600                       # Energy for precharge background per rank (pJ)
system.mem_ctrls0_0.actPowerDownEnergy     4581454800                       # Energy for active power-down per rank (pJ)
system.mem_ctrls0_0.prePowerDownEnergy      588523680                       # Energy for precharge power-down per rank (pJ)
system.mem_ctrls0_0.selfRefreshEnergy       486538650                       # Energy for self refresh per rank (pJ)
system.mem_ctrls0_0.totalEnergy            7448918790                       # Total energy per rank (pJ)
system.mem_ctrls0_0.averagePower           512.706737                       # Core power per rank (mW)
system.mem_ctrls0_0.totalIdleTime         13430340250                       # Total Idle time Per DRAM Rank
system.mem_ctrls0_0.memoryStateTime::IDLE     29453000                       # Time in different power states
system.mem_ctrls0_0.memoryStateTime::REF    441954000                       # Time in different power states
system.mem_ctrls0_0.memoryStateTime::SREF   1851905500                       # Time in different power states
system.mem_ctrls0_0.memoryStateTime::PRE_PDN   1532599500                       # Time in different power states
system.mem_ctrls0_0.memoryStateTime::ACT    625642500                       # Time in different power states
system.mem_ctrls0_0.memoryStateTime::ACT_PDN  10047060500                       # Time in different power states
system.mem_ctrls0_1.actEnergy                77197680                       # Energy for activate commands per rank (pJ)
system.mem_ctrls0_1.preEnergy                41031540                       # Energy for precharge commands per rank (pJ)
system.mem_ctrls0_1.readEnergy              139158600                       # Energy for read commands per rank (pJ)
system.mem_ctrls0_1.writeEnergy                     0                       # Energy for write commands per rank (pJ)
system.mem_ctrls0_1.refreshEnergy        1033209840.000000                       # Energy for refresh commands per rank (pJ)
system.mem_ctrls0_1.actBackEnergy           466796940                       # Energy for active background per rank (pJ)
system.mem_ctrls0_1.preBackEnergy            29098560                       # Energy for precharge background per rank (pJ)
system.mem_ctrls0_1.actPowerDownEnergy     4467327690                       # Energy for active power-down per rank (pJ)
system.mem_ctrls0_1.prePowerDownEnergy      628853760                       # Energy for precharge power-down per rank (pJ)
system.mem_ctrls0_1.selfRefreshEnergy       521291385                       # Energy for self refresh per rank (pJ)
system.mem_ctrls0_1.totalEnergy            7404054495                       # Total energy per rank (pJ)
system.mem_ctrls0_1.averagePower           509.618742                       # Core power per rank (mW)
system.mem_ctrls0_1.totalIdleTime         13425920250                       # Total Idle time Per DRAM Rank
system.mem_ctrls0_1.memoryStateTime::IDLE     29561750                       # Time in different power states
system.mem_ctrls0_1.memoryStateTime::REF    437528000                       # Time in different power states
system.mem_ctrls0_1.memoryStateTime::SREF   1994556750                       # Time in different power states
system.mem_ctrls0_1.memoryStateTime::PRE_PDN   1637603500                       # Time in different power states
system.mem_ctrls0_1.memoryStateTime::ACT    632243500                       # Time in different power states
system.mem_ctrls0_1.memoryStateTime::ACT_PDN   9797121500                       # Time in different power states
system.mem_ctrls1.pwrStateResidencyTicks::UNDEFINED  14528615000                       # Cumulative time (in ticks) in various power states
system.mem_ctrls1.bytes_read::ruby.dir_cntrl1      2422976                       # Number of bytes read from this memory
system.mem_ctrls1.bytes_read::total           2422976                       # Number of bytes read from this memory
system.mem_ctrls1.bytes_written::ruby.dir_cntrl1          960                       # Number of bytes written to this memory
system.mem_ctrls1.bytes_written::total            960                       # Number of bytes written to this memory
system.mem_ctrls1.num_reads::ruby.dir_cntrl1        37859                       # Number of read requests responded to by this memory
system.mem_ctrls1.num_reads::total              37859                       # Number of read requests responded to by this memory
system.mem_ctrls1.num_writes::ruby.dir_cntrl1           15                       # Number of write requests responded to by this memory
system.mem_ctrls1.num_writes::total                15                       # Number of write requests responded to by this memory
system.mem_ctrls1.bw_read::ruby.dir_cntrl1    166772676                       # Total read bandwidth from this memory (bytes/s)
system.mem_ctrls1.bw_read::total            166772676                       # Total read bandwidth from this memory (bytes/s)
system.mem_ctrls1.bw_write::ruby.dir_cntrl1        66076                       # Write bandwidth from this memory (bytes/s)
system.mem_ctrls1.bw_write::total               66076                       # Write bandwidth from this memory (bytes/s)
system.mem_ctrls1.bw_total::ruby.dir_cntrl1    166838752                       # Total bandwidth to/from this memory (bytes/s)
system.mem_ctrls1.bw_total::total           166838752                       # Total bandwidth to/from this memory (bytes/s)
system.mem_ctrls1.readReqs                      37859                       # Number of read requests accepted
system.mem_ctrls1.writeReqs                        15                       # Number of write requests accepted
system.mem_ctrls1.readBursts                    37859                       # Number of DRAM read bursts, including those serviced by the write queue
system.mem_ctrls1.writeBursts                      15                       # Number of DRAM write bursts, including those merged in the write queue
system.mem_ctrls1.bytesReadDRAM               2422976                       # Total number of bytes read from DRAM
system.mem_ctrls1.bytesReadWrQ                      0                       # Total number of bytes read from write queue
system.mem_ctrls1.bytesWritten                      0                       # Total number of bytes written to DRAM
system.mem_ctrls1.bytesReadSys                2422976                       # Total read bytes from the system interface side
system.mem_ctrls1.bytesWrittenSys                 960                       # Total written bytes from the system interface side
system.mem_ctrls1.servicedByWrQ                     0                       # Number of DRAM read bursts serviced by the write queue
system.mem_ctrls1.mergedWrBursts                    0                       # Number of DRAM write bursts merged with an existing one
system.mem_ctrls1.neitherReadNorWriteReqs            0                       # Number of requests that are neither read nor write
system.mem_ctrls1.perBankRdBursts::0             2465                       # Per bank write bursts
system.mem_ctrls1.perBankRdBursts::1             2455                       # Per bank write bursts
system.mem_ctrls1.perBankRdBursts::2             2250                       # Per bank write bursts
system.mem_ctrls1.perBankRdBursts::3             2416                       # Per bank write bursts
system.mem_ctrls1.perBankRdBursts::4             2348                       # Per bank write bursts
system.mem_ctrls1.perBankRdBursts::5             1963                       # Per bank write bursts
system.mem_ctrls1.perBankRdBursts::6             2426                       # Per bank write bursts
system.mem_ctrls1.perBankRdBursts::7             2292                       # Per bank write bursts
system.mem_ctrls1.perBankRdBursts::8             1795                       # Per bank write bursts
system.mem_ctrls1.perBankRdBursts::9             2029                       # Per bank write bursts
system.mem_ctrls1.perBankRdBursts::10            2195                       # Per bank write bursts
system.mem_ctrls1.perBankRdBursts::11            2380                       # Per bank write bursts
system.mem_ctrls1.perBankRdBursts::12            2595                       # Per bank write bursts
system.mem_ctrls1.perBankRdBursts::13            2709                       # Per bank write bursts
system.mem_ctrls1.perBankRdBursts::14            2697                       # Per bank write bursts
system.mem_ctrls1.perBankRdBursts::15            2844                       # Per bank write bursts
system.mem_ctrls1.perBankWrBursts::0                0                       # Per bank write bursts
system.mem_ctrls1.perBankWrBursts::1                0                       # Per bank write bursts
system.mem_ctrls1.perBankWrBursts::2                0                       # Per bank write bursts
system.mem_ctrls1.perBankWrBursts::3                0                       # Per bank write bursts
system.mem_ctrls1.perBankWrBursts::4                0                       # Per bank write bursts
system.mem_ctrls1.perBankWrBursts::5                0                       # Per bank write bursts
system.mem_ctrls1.perBankWrBursts::6                0                       # Per bank write bursts
system.mem_ctrls1.perBankWrBursts::7                0                       # Per bank write bursts
system.mem_ctrls1.perBankWrBursts::8                0                       # Per bank write bursts
system.mem_ctrls1.perBankWrBursts::9                0                       # Per bank write bursts
system.mem_ctrls1.perBankWrBursts::10               0                       # Per bank write bursts
system.mem_ctrls1.perBankWrBursts::11               0                       # Per bank write bursts
system.mem_ctrls1.perBankWrBursts::12               0                       # Per bank write bursts
system.mem_ctrls1.perBankWrBursts::13               0                       # Per bank write bursts
system.mem_ctrls1.perBankWrBursts::14               0                       # Per bank write bursts
system.mem_ctrls1.perBankWrBursts::15               0                       # Per bank write bursts
system.mem_ctrls1.numRdRetry                        0                       # Number of times read queue was full causing retry
system.mem_ctrls1.numWrRetry                        0                       # Number of times write queue was full causing retry
system.mem_ctrls1.totGap                  14527808000                       # Total gap between requests
system.mem_ctrls1.readPktSize::0                    0                       # Read request sizes (log2)
system.mem_ctrls1.readPktSize::1                    0                       # Read request sizes (log2)
system.mem_ctrls1.readPktSize::2                    0                       # Read request sizes (log2)
system.mem_ctrls1.readPktSize::3                    0                       # Read request sizes (log2)
system.mem_ctrls1.readPktSize::4                    0                       # Read request sizes (log2)
system.mem_ctrls1.readPktSize::5                    0                       # Read request sizes (log2)
system.mem_ctrls1.readPktSize::6                37859                       # Read request sizes (log2)
system.mem_ctrls1.writePktSize::0                   0                       # Write request sizes (log2)
system.mem_ctrls1.writePktSize::1                   0                       # Write request sizes (log2)
system.mem_ctrls1.writePktSize::2                   0                       # Write request sizes (log2)
system.mem_ctrls1.writePktSize::3                   0                       # Write request sizes (log2)
system.mem_ctrls1.writePktSize::4                   0                       # Write request sizes (log2)
system.mem_ctrls1.writePktSize::5                   0                       # Write request sizes (log2)
system.mem_ctrls1.writePktSize::6                  15                       # Write request sizes (log2)
system.mem_ctrls1.rdQLenPdf::0                  27634                       # What read queue length does an incoming req see
system.mem_ctrls1.rdQLenPdf::1                   7076                       # What read queue length does an incoming req see
system.mem_ctrls1.rdQLenPdf::2                   1982                       # What read queue length does an incoming req see
system.mem_ctrls1.rdQLenPdf::3                    657                       # What read queue length does an incoming req see
system.mem_ctrls1.rdQLenPdf::4                    227                       # What read queue length does an incoming req see
system.mem_ctrls1.rdQLenPdf::5                    101                       # What read queue length does an incoming req see
system.mem_ctrls1.rdQLenPdf::6                     53                       # What read queue length does an incoming req see
system.mem_ctrls1.rdQLenPdf::7                     31                       # What read queue length does an incoming req see
system.mem_ctrls1.rdQLenPdf::8                     24                       # What read queue length does an incoming req see
system.mem_ctrls1.rdQLenPdf::9                     19                       # What read queue length does an incoming req see
system.mem_ctrls1.rdQLenPdf::10                    23                       # What read queue length does an incoming req see
system.mem_ctrls1.rdQLenPdf::11                    17                       # What read queue length does an incoming req see
system.mem_ctrls1.rdQLenPdf::12                    15                       # What read queue length does an incoming req see
system.mem_ctrls1.rdQLenPdf::13                     0                       # What read queue length does an incoming req see
system.mem_ctrls1.rdQLenPdf::14                     0                       # What read queue length does an incoming req see
system.mem_ctrls1.rdQLenPdf::15                     0                       # What read queue length does an incoming req see
system.mem_ctrls1.rdQLenPdf::16                     0                       # What read queue length does an incoming req see
system.mem_ctrls1.rdQLenPdf::17                     0                       # What read queue length does an incoming req see
system.mem_ctrls1.rdQLenPdf::18                     0                       # What read queue length does an incoming req see
system.mem_ctrls1.rdQLenPdf::19                     0                       # What read queue length does an incoming req see
system.mem_ctrls1.rdQLenPdf::20                     0                       # What read queue length does an incoming req see
system.mem_ctrls1.rdQLenPdf::21                     0                       # What read queue length does an incoming req see
system.mem_ctrls1.rdQLenPdf::22                     0                       # What read queue length does an incoming req see
system.mem_ctrls1.rdQLenPdf::23                     0                       # What read queue length does an incoming req see
system.mem_ctrls1.rdQLenPdf::24                     0                       # What read queue length does an incoming req see
system.mem_ctrls1.rdQLenPdf::25                     0                       # What read queue length does an incoming req see
system.mem_ctrls1.rdQLenPdf::26                     0                       # What read queue length does an incoming req see
system.mem_ctrls1.rdQLenPdf::27                     0                       # What read queue length does an incoming req see
system.mem_ctrls1.rdQLenPdf::28                     0                       # What read queue length does an incoming req see
system.mem_ctrls1.rdQLenPdf::29                     0                       # What read queue length does an incoming req see
system.mem_ctrls1.rdQLenPdf::30                     0                       # What read queue length does an incoming req see
system.mem_ctrls1.rdQLenPdf::31                     0                       # What read queue length does an incoming req see
system.mem_ctrls1.wrQLenPdf::0                      1                       # What write queue length does an incoming req see
system.mem_ctrls1.wrQLenPdf::1                      1                       # What write queue length does an incoming req see
system.mem_ctrls1.wrQLenPdf::2                      1                       # What write queue length does an incoming req see
system.mem_ctrls1.wrQLenPdf::3                      1                       # What write queue length does an incoming req see
system.mem_ctrls1.wrQLenPdf::4                      1                       # What write queue length does an incoming req see
system.mem_ctrls1.wrQLenPdf::5                      1                       # What write queue length does an incoming req see
system.mem_ctrls1.wrQLenPdf::6                      1                       # What write queue length does an incoming req see
system.mem_ctrls1.wrQLenPdf::7                      1                       # What write queue length does an incoming req see
system.mem_ctrls1.wrQLenPdf::8                      1                       # What write queue length does an incoming req see
system.mem_ctrls1.wrQLenPdf::9                      1                       # What write queue length does an incoming req see
system.mem_ctrls1.wrQLenPdf::10                     1                       # What write queue length does an incoming req see
system.mem_ctrls1.wrQLenPdf::11                     1                       # What write queue length does an incoming req see
system.mem_ctrls1.wrQLenPdf::12                     1                       # What write queue length does an incoming req see
system.mem_ctrls1.wrQLenPdf::13                     1                       # What write queue length does an incoming req see
system.mem_ctrls1.wrQLenPdf::14                     1                       # What write queue length does an incoming req see
system.mem_ctrls1.wrQLenPdf::15                     0                       # What write queue length does an incoming req see
system.mem_ctrls1.wrQLenPdf::16                     0                       # What write queue length does an incoming req see
system.mem_ctrls1.wrQLenPdf::17                     0                       # What write queue length does an incoming req see
system.mem_ctrls1.wrQLenPdf::18                     0                       # What write queue length does an incoming req see
system.mem_ctrls1.wrQLenPdf::19                     0                       # What write queue length does an incoming req see
system.mem_ctrls1.wrQLenPdf::20                     0                       # What write queue length does an incoming req see
system.mem_ctrls1.wrQLenPdf::21                     0                       # What write queue length does an incoming req see
system.mem_ctrls1.wrQLenPdf::22                     0                       # What write queue length does an incoming req see
system.mem_ctrls1.wrQLenPdf::23                     0                       # What write queue length does an incoming req see
system.mem_ctrls1.wrQLenPdf::24                     0                       # What write queue length does an incoming req see
system.mem_ctrls1.wrQLenPdf::25                     0                       # What write queue length does an incoming req see
system.mem_ctrls1.wrQLenPdf::26                     0                       # What write queue length does an incoming req see
system.mem_ctrls1.wrQLenPdf::27                     0                       # What write queue length does an incoming req see
system.mem_ctrls1.wrQLenPdf::28                     0                       # What write queue length does an incoming req see
system.mem_ctrls1.wrQLenPdf::29                     0                       # What write queue length does an incoming req see
system.mem_ctrls1.wrQLenPdf::30                     0                       # What write queue length does an incoming req see
system.mem_ctrls1.wrQLenPdf::31                     0                       # What write queue length does an incoming req see
system.mem_ctrls1.wrQLenPdf::32                     0                       # What write queue length does an incoming req see
system.mem_ctrls1.wrQLenPdf::33                     0                       # What write queue length does an incoming req see
system.mem_ctrls1.wrQLenPdf::34                     0                       # What write queue length does an incoming req see
system.mem_ctrls1.wrQLenPdf::35                     0                       # What write queue length does an incoming req see
system.mem_ctrls1.wrQLenPdf::36                     0                       # What write queue length does an incoming req see
system.mem_ctrls1.wrQLenPdf::37                     0                       # What write queue length does an incoming req see
system.mem_ctrls1.wrQLenPdf::38                     0                       # What write queue length does an incoming req see
system.mem_ctrls1.wrQLenPdf::39                     0                       # What write queue length does an incoming req see
system.mem_ctrls1.wrQLenPdf::40                     0                       # What write queue length does an incoming req see
system.mem_ctrls1.wrQLenPdf::41                     0                       # What write queue length does an incoming req see
system.mem_ctrls1.wrQLenPdf::42                     0                       # What write queue length does an incoming req see
system.mem_ctrls1.wrQLenPdf::43                     0                       # What write queue length does an incoming req see
system.mem_ctrls1.wrQLenPdf::44                     0                       # What write queue length does an incoming req see
system.mem_ctrls1.wrQLenPdf::45                     0                       # What write queue length does an incoming req see
system.mem_ctrls1.wrQLenPdf::46                     0                       # What write queue length does an incoming req see
system.mem_ctrls1.wrQLenPdf::47                     0                       # What write queue length does an incoming req see
system.mem_ctrls1.wrQLenPdf::48                     0                       # What write queue length does an incoming req see
system.mem_ctrls1.wrQLenPdf::49                     0                       # What write queue length does an incoming req see
system.mem_ctrls1.wrQLenPdf::50                     0                       # What write queue length does an incoming req see
system.mem_ctrls1.wrQLenPdf::51                     0                       # What write queue length does an incoming req see
system.mem_ctrls1.wrQLenPdf::52                     0                       # What write queue length does an incoming req see
system.mem_ctrls1.wrQLenPdf::53                     0                       # What write queue length does an incoming req see
system.mem_ctrls1.wrQLenPdf::54                     0                       # What write queue length does an incoming req see
system.mem_ctrls1.wrQLenPdf::55                     0                       # What write queue length does an incoming req see
system.mem_ctrls1.wrQLenPdf::56                     0                       # What write queue length does an incoming req see
system.mem_ctrls1.wrQLenPdf::57                     0                       # What write queue length does an incoming req see
system.mem_ctrls1.wrQLenPdf::58                     0                       # What write queue length does an incoming req see
system.mem_ctrls1.wrQLenPdf::59                     0                       # What write queue length does an incoming req see
system.mem_ctrls1.wrQLenPdf::60                     0                       # What write queue length does an incoming req see
system.mem_ctrls1.wrQLenPdf::61                     0                       # What write queue length does an incoming req see
system.mem_ctrls1.wrQLenPdf::62                     0                       # What write queue length does an incoming req see
system.mem_ctrls1.wrQLenPdf::63                     0                       # What write queue length does an incoming req see
system.mem_ctrls1.bytesPerActivate::samples        21260                       # Bytes accessed per row activation
system.mem_ctrls1.bytesPerActivate::mean   113.953716                       # Bytes accessed per row activation
system.mem_ctrls1.bytesPerActivate::gmean    83.702022                       # Bytes accessed per row activation
system.mem_ctrls1.bytesPerActivate::stdev   131.870135                       # Bytes accessed per row activation
system.mem_ctrls1.bytesPerActivate::0-127        17472     82.18%     82.18% # Bytes accessed per row activation
system.mem_ctrls1.bytesPerActivate::128-255         1487      6.99%     89.18% # Bytes accessed per row activation
system.mem_ctrls1.bytesPerActivate::256-383          359      1.69%     90.87% # Bytes accessed per row activation
system.mem_ctrls1.bytesPerActivate::384-511          279      1.31%     92.18% # Bytes accessed per row activation
system.mem_ctrls1.bytesPerActivate::512-639         1592      7.49%     99.67% # Bytes accessed per row activation
system.mem_ctrls1.bytesPerActivate::640-767           62      0.29%     99.96% # Bytes accessed per row activation
system.mem_ctrls1.bytesPerActivate::768-895            2      0.01%     99.97% # Bytes accessed per row activation
system.mem_ctrls1.bytesPerActivate::896-1023            1      0.00%     99.97% # Bytes accessed per row activation
system.mem_ctrls1.bytesPerActivate::1024-1151            6      0.03%    100.00% # Bytes accessed per row activation
system.mem_ctrls1.bytesPerActivate::total        21260                       # Bytes accessed per row activation
system.mem_ctrls1.totQLat                  1129771500                       # Total ticks spent queuing
system.mem_ctrls1.totMemAccLat             1839627750                       # Total ticks spent from burst creation until serviced by the DRAM
system.mem_ctrls1.totBusLat                 189295000                       # Total ticks spent in databus transfers
system.mem_ctrls1.avgQLat                    29841.56                       # Average queueing delay per DRAM burst
system.mem_ctrls1.avgBusLat                   5000.00                       # Average bus latency per DRAM burst
system.mem_ctrls1.avgMemAccLat               48591.56                       # Average memory access latency per DRAM burst
system.mem_ctrls1.avgRdBW                      166.77                       # Average DRAM read bandwidth in MiByte/s
system.mem_ctrls1.avgWrBW                        0.00                       # Average achieved write bandwidth in MiByte/s
system.mem_ctrls1.avgRdBWSys                   166.77                       # Average system read bandwidth in MiByte/s
system.mem_ctrls1.avgWrBWSys                     0.07                       # Average system write bandwidth in MiByte/s
system.mem_ctrls1.peakBW                     12800.00                       # Theoretical peak bandwidth in MiByte/s
system.mem_ctrls1.busUtil                        1.30                       # Data bus utilization in percentage
system.mem_ctrls1.busUtilRead                    1.30                       # Data bus utilization in percentage for reads
system.mem_ctrls1.busUtilWrite                   0.00                       # Data bus utilization in percentage for writes
system.mem_ctrls1.avgRdQLen                      1.54                       # Average read queue length when enqueuing
system.mem_ctrls1.avgWrQLen                      1.68                       # Average write queue length when enqueuing
system.mem_ctrls1.readRowHits                   16597                       # Number of row buffer hits during reads
system.mem_ctrls1.writeRowHits                      0                       # Number of row buffer hits during writes
system.mem_ctrls1.readRowHitRate                43.84                       # Row buffer hit rate for reads
system.mem_ctrls1.writeRowHitRate                0.00                       # Row buffer hit rate for writes
system.mem_ctrls1.avgGap                    383582.62                       # Average gap between requests
system.mem_ctrls1.pageHitRate                   43.82                       # Row buffer hit rate, read and write combined
system.mem_ctrls1_0.actEnergy                75862500                       # Energy for activate commands per rank (pJ)
system.mem_ctrls1_0.preEnergy                40314285                       # Energy for precharge commands per rank (pJ)
system.mem_ctrls1_0.readEnergy              132911100                       # Energy for read commands per rank (pJ)
system.mem_ctrls1_0.writeEnergy                     0                       # Energy for write commands per rank (pJ)
system.mem_ctrls1_0.refreshEnergy        1039356240.000000                       # Energy for refresh commands per rank (pJ)
system.mem_ctrls1_0.actBackEnergy           459973470                       # Energy for active background per rank (pJ)
system.mem_ctrls1_0.preBackEnergy            29450400                       # Energy for precharge background per rank (pJ)
system.mem_ctrls1_0.actPowerDownEnergy     4567782780                       # Energy for active power-down per rank (pJ)
system.mem_ctrls1_0.prePowerDownEnergy      582756000                       # Energy for precharge power-down per rank (pJ)
system.mem_ctrls1_0.selfRefreshEnergy       500050545                       # Energy for self refresh per rank (pJ)
system.mem_ctrls1_0.totalEnergy            7428552780                       # Total energy per rank (pJ)
system.mem_ctrls1_0.averagePower           511.304951                       # Core power per rank (mW)
system.mem_ctrls1_0.totalIdleTime         13442636000                       # Total Idle time Per DRAM Rank
system.mem_ctrls1_0.memoryStateTime::IDLE     29649500                       # Time in different power states
system.mem_ctrls1_0.memoryStateTime::REF    440140000                       # Time in different power states
system.mem_ctrls1_0.memoryStateTime::SREF   1908330750                       # Time in different power states
system.mem_ctrls1_0.memoryStateTime::PRE_PDN   1517579500                       # Time in different power states
system.mem_ctrls1_0.memoryStateTime::ACT    615786250                       # Time in different power states
system.mem_ctrls1_0.memoryStateTime::ACT_PDN  10017129000                       # Time in different power states
system.mem_ctrls1_1.actEnergy                75948180                       # Energy for activate commands per rank (pJ)
system.mem_ctrls1_1.preEnergy                40367415                       # Energy for precharge commands per rank (pJ)
system.mem_ctrls1_1.readEnergy              137402160                       # Energy for read commands per rank (pJ)
system.mem_ctrls1_1.writeEnergy                     0                       # Energy for write commands per rank (pJ)
system.mem_ctrls1_1.refreshEnergy        1032595200.000000                       # Energy for refresh commands per rank (pJ)
system.mem_ctrls1_1.actBackEnergy           462883890                       # Energy for active background per rank (pJ)
system.mem_ctrls1_1.preBackEnergy            28938720                       # Energy for precharge background per rank (pJ)
system.mem_ctrls1_1.actPowerDownEnergy     4471163220                       # Energy for active power-down per rank (pJ)
system.mem_ctrls1_1.prePowerDownEnergy      626407200                       # Energy for precharge power-down per rank (pJ)
system.mem_ctrls1_1.selfRefreshEnergy       523078005                       # Energy for self refresh per rank (pJ)
system.mem_ctrls1_1.totalEnergy            7399107360                       # Total energy per rank (pJ)
system.mem_ctrls1_1.averagePower           509.278232                       # Core power per rank (mW)
system.mem_ctrls1_1.totalIdleTime         13432319250                       # Total Idle time Per DRAM Rank
system.mem_ctrls1_1.memoryStateTime::IDLE     29718000                       # Time in different power states
system.mem_ctrls1_1.memoryStateTime::REF    437274000                       # Time in different power states
system.mem_ctrls1_1.memoryStateTime::SREF   2000989000                       # Time in different power states
system.mem_ctrls1_1.memoryStateTime::PRE_PDN   1631122750                       # Time in different power states
system.mem_ctrls1_1.memoryStateTime::ACT    624588250                       # Time in different power states
system.mem_ctrls1_1.memoryStateTime::ACT_PDN   9804923000                       # Time in different power states
system.mem_ctrls2.pwrStateResidencyTicks::UNDEFINED  14528615000                       # Cumulative time (in ticks) in various power states
system.mem_ctrls2.bytes_read::ruby.dir_cntrl2      2432768                       # Number of bytes read from this memory
system.mem_ctrls2.bytes_read::total           2432768                       # Number of bytes read from this memory
system.mem_ctrls2.bytes_written::ruby.dir_cntrl2         1216                       # Number of bytes written to this memory
system.mem_ctrls2.bytes_written::total           1216                       # Number of bytes written to this memory
system.mem_ctrls2.num_reads::ruby.dir_cntrl2        38012                       # Number of read requests responded to by this memory
system.mem_ctrls2.num_reads::total              38012                       # Number of read requests responded to by this memory
system.mem_ctrls2.num_writes::ruby.dir_cntrl2           19                       # Number of write requests responded to by this memory
system.mem_ctrls2.num_writes::total                19                       # Number of write requests responded to by this memory
system.mem_ctrls2.bw_read::ruby.dir_cntrl2    167446656                       # Total read bandwidth from this memory (bytes/s)
system.mem_ctrls2.bw_read::total            167446656                       # Total read bandwidth from this memory (bytes/s)
system.mem_ctrls2.bw_write::ruby.dir_cntrl2        83697                       # Write bandwidth from this memory (bytes/s)
system.mem_ctrls2.bw_write::total               83697                       # Write bandwidth from this memory (bytes/s)
system.mem_ctrls2.bw_total::ruby.dir_cntrl2    167530353                       # Total bandwidth to/from this memory (bytes/s)
system.mem_ctrls2.bw_total::total           167530353                       # Total bandwidth to/from this memory (bytes/s)
system.mem_ctrls2.readReqs                      38012                       # Number of read requests accepted
system.mem_ctrls2.writeReqs                        19                       # Number of write requests accepted
system.mem_ctrls2.readBursts                    38012                       # Number of DRAM read bursts, including those serviced by the write queue
system.mem_ctrls2.writeBursts                      19                       # Number of DRAM write bursts, including those merged in the write queue
system.mem_ctrls2.bytesReadDRAM               2432768                       # Total number of bytes read from DRAM
system.mem_ctrls2.bytesReadWrQ                      0                       # Total number of bytes read from write queue
system.mem_ctrls2.bytesWritten                      0                       # Total number of bytes written to DRAM
system.mem_ctrls2.bytesReadSys                2432768                       # Total read bytes from the system interface side
system.mem_ctrls2.bytesWrittenSys                1216                       # Total written bytes from the system interface side
system.mem_ctrls2.servicedByWrQ                     0                       # Number of DRAM read bursts serviced by the write queue
system.mem_ctrls2.mergedWrBursts                    0                       # Number of DRAM write bursts merged with an existing one
system.mem_ctrls2.neitherReadNorWriteReqs            0                       # Number of requests that are neither read nor write
system.mem_ctrls2.perBankRdBursts::0             2488                       # Per bank write bursts
system.mem_ctrls2.perBankRdBursts::1             2447                       # Per bank write bursts
system.mem_ctrls2.perBankRdBursts::2             2255                       # Per bank write bursts
system.mem_ctrls2.perBankRdBursts::3             2411                       # Per bank write bursts
system.mem_ctrls2.perBankRdBursts::4             2360                       # Per bank write bursts
system.mem_ctrls2.perBankRdBursts::5             1979                       # Per bank write bursts
system.mem_ctrls2.perBankRdBursts::6             2415                       # Per bank write bursts
system.mem_ctrls2.perBankRdBursts::7             2319                       # Per bank write bursts
system.mem_ctrls2.perBankRdBursts::8             1796                       # Per bank write bursts
system.mem_ctrls2.perBankRdBursts::9             2020                       # Per bank write bursts
system.mem_ctrls2.perBankRdBursts::10            2241                       # Per bank write bursts
system.mem_ctrls2.perBankRdBursts::11            2357                       # Per bank write bursts
system.mem_ctrls2.perBankRdBursts::12            2630                       # Per bank write bursts
system.mem_ctrls2.perBankRdBursts::13            2716                       # Per bank write bursts
system.mem_ctrls2.perBankRdBursts::14            2726                       # Per bank write bursts
system.mem_ctrls2.perBankRdBursts::15            2852                       # Per bank write bursts
system.mem_ctrls2.perBankWrBursts::0                0                       # Per bank write bursts
system.mem_ctrls2.perBankWrBursts::1                0                       # Per bank write bursts
system.mem_ctrls2.perBankWrBursts::2                0                       # Per bank write bursts
system.mem_ctrls2.perBankWrBursts::3                0                       # Per bank write bursts
system.mem_ctrls2.perBankWrBursts::4                0                       # Per bank write bursts
system.mem_ctrls2.perBankWrBursts::5                0                       # Per bank write bursts
system.mem_ctrls2.perBankWrBursts::6                0                       # Per bank write bursts
system.mem_ctrls2.perBankWrBursts::7                0                       # Per bank write bursts
system.mem_ctrls2.perBankWrBursts::8                0                       # Per bank write bursts
system.mem_ctrls2.perBankWrBursts::9                0                       # Per bank write bursts
system.mem_ctrls2.perBankWrBursts::10               0                       # Per bank write bursts
system.mem_ctrls2.perBankWrBursts::11               0                       # Per bank write bursts
system.mem_ctrls2.perBankWrBursts::12               0                       # Per bank write bursts
system.mem_ctrls2.perBankWrBursts::13               0                       # Per bank write bursts
system.mem_ctrls2.perBankWrBursts::14               0                       # Per bank write bursts
system.mem_ctrls2.perBankWrBursts::15               0                       # Per bank write bursts
system.mem_ctrls2.numRdRetry                        0                       # Number of times read queue was full causing retry
system.mem_ctrls2.numWrRetry                        0                       # Number of times write queue was full causing retry
system.mem_ctrls2.totGap                  14527435000                       # Total gap between requests
system.mem_ctrls2.readPktSize::0                    0                       # Read request sizes (log2)
system.mem_ctrls2.readPktSize::1                    0                       # Read request sizes (log2)
system.mem_ctrls2.readPktSize::2                    0                       # Read request sizes (log2)
system.mem_ctrls2.readPktSize::3                    0                       # Read request sizes (log2)
system.mem_ctrls2.readPktSize::4                    0                       # Read request sizes (log2)
system.mem_ctrls2.readPktSize::5                    0                       # Read request sizes (log2)
system.mem_ctrls2.readPktSize::6                38012                       # Read request sizes (log2)
system.mem_ctrls2.writePktSize::0                   0                       # Write request sizes (log2)
system.mem_ctrls2.writePktSize::1                   0                       # Write request sizes (log2)
system.mem_ctrls2.writePktSize::2                   0                       # Write request sizes (log2)
system.mem_ctrls2.writePktSize::3                   0                       # Write request sizes (log2)
system.mem_ctrls2.writePktSize::4                   0                       # Write request sizes (log2)
system.mem_ctrls2.writePktSize::5                   0                       # Write request sizes (log2)
system.mem_ctrls2.writePktSize::6                  19                       # Write request sizes (log2)
system.mem_ctrls2.rdQLenPdf::0                  27656                       # What read queue length does an incoming req see
system.mem_ctrls2.rdQLenPdf::1                   7157                       # What read queue length does an incoming req see
system.mem_ctrls2.rdQLenPdf::2                   1921                       # What read queue length does an incoming req see
system.mem_ctrls2.rdQLenPdf::3                    673                       # What read queue length does an incoming req see
system.mem_ctrls2.rdQLenPdf::4                    271                       # What read queue length does an incoming req see
system.mem_ctrls2.rdQLenPdf::5                    129                       # What read queue length does an incoming req see
system.mem_ctrls2.rdQLenPdf::6                     63                       # What read queue length does an incoming req see
system.mem_ctrls2.rdQLenPdf::7                     48                       # What read queue length does an incoming req see
system.mem_ctrls2.rdQLenPdf::8                     29                       # What read queue length does an incoming req see
system.mem_ctrls2.rdQLenPdf::9                     20                       # What read queue length does an incoming req see
system.mem_ctrls2.rdQLenPdf::10                    17                       # What read queue length does an incoming req see
system.mem_ctrls2.rdQLenPdf::11                    14                       # What read queue length does an incoming req see
system.mem_ctrls2.rdQLenPdf::12                    14                       # What read queue length does an incoming req see
system.mem_ctrls2.rdQLenPdf::13                     0                       # What read queue length does an incoming req see
system.mem_ctrls2.rdQLenPdf::14                     0                       # What read queue length does an incoming req see
system.mem_ctrls2.rdQLenPdf::15                     0                       # What read queue length does an incoming req see
system.mem_ctrls2.rdQLenPdf::16                     0                       # What read queue length does an incoming req see
system.mem_ctrls2.rdQLenPdf::17                     0                       # What read queue length does an incoming req see
system.mem_ctrls2.rdQLenPdf::18                     0                       # What read queue length does an incoming req see
system.mem_ctrls2.rdQLenPdf::19                     0                       # What read queue length does an incoming req see
system.mem_ctrls2.rdQLenPdf::20                     0                       # What read queue length does an incoming req see
system.mem_ctrls2.rdQLenPdf::21                     0                       # What read queue length does an incoming req see
system.mem_ctrls2.rdQLenPdf::22                     0                       # What read queue length does an incoming req see
system.mem_ctrls2.rdQLenPdf::23                     0                       # What read queue length does an incoming req see
system.mem_ctrls2.rdQLenPdf::24                     0                       # What read queue length does an incoming req see
system.mem_ctrls2.rdQLenPdf::25                     0                       # What read queue length does an incoming req see
system.mem_ctrls2.rdQLenPdf::26                     0                       # What read queue length does an incoming req see
system.mem_ctrls2.rdQLenPdf::27                     0                       # What read queue length does an incoming req see
system.mem_ctrls2.rdQLenPdf::28                     0                       # What read queue length does an incoming req see
system.mem_ctrls2.rdQLenPdf::29                     0                       # What read queue length does an incoming req see
system.mem_ctrls2.rdQLenPdf::30                     0                       # What read queue length does an incoming req see
system.mem_ctrls2.rdQLenPdf::31                     0                       # What read queue length does an incoming req see
system.mem_ctrls2.wrQLenPdf::0                      1                       # What write queue length does an incoming req see
system.mem_ctrls2.wrQLenPdf::1                      1                       # What write queue length does an incoming req see
system.mem_ctrls2.wrQLenPdf::2                      1                       # What write queue length does an incoming req see
system.mem_ctrls2.wrQLenPdf::3                      1                       # What write queue length does an incoming req see
system.mem_ctrls2.wrQLenPdf::4                      1                       # What write queue length does an incoming req see
system.mem_ctrls2.wrQLenPdf::5                      1                       # What write queue length does an incoming req see
system.mem_ctrls2.wrQLenPdf::6                      1                       # What write queue length does an incoming req see
system.mem_ctrls2.wrQLenPdf::7                      1                       # What write queue length does an incoming req see
system.mem_ctrls2.wrQLenPdf::8                      1                       # What write queue length does an incoming req see
system.mem_ctrls2.wrQLenPdf::9                      1                       # What write queue length does an incoming req see
system.mem_ctrls2.wrQLenPdf::10                     1                       # What write queue length does an incoming req see
system.mem_ctrls2.wrQLenPdf::11                     1                       # What write queue length does an incoming req see
system.mem_ctrls2.wrQLenPdf::12                     1                       # What write queue length does an incoming req see
system.mem_ctrls2.wrQLenPdf::13                     1                       # What write queue length does an incoming req see
system.mem_ctrls2.wrQLenPdf::14                     1                       # What write queue length does an incoming req see
system.mem_ctrls2.wrQLenPdf::15                     1                       # What write queue length does an incoming req see
system.mem_ctrls2.wrQLenPdf::16                     1                       # What write queue length does an incoming req see
system.mem_ctrls2.wrQLenPdf::17                     1                       # What write queue length does an incoming req see
system.mem_ctrls2.wrQLenPdf::18                     1                       # What write queue length does an incoming req see
system.mem_ctrls2.wrQLenPdf::19                     0                       # What write queue length does an incoming req see
system.mem_ctrls2.wrQLenPdf::20                     0                       # What write queue length does an incoming req see
system.mem_ctrls2.wrQLenPdf::21                     0                       # What write queue length does an incoming req see
system.mem_ctrls2.wrQLenPdf::22                     0                       # What write queue length does an incoming req see
system.mem_ctrls2.wrQLenPdf::23                     0                       # What write queue length does an incoming req see
system.mem_ctrls2.wrQLenPdf::24                     0                       # What write queue length does an incoming req see
system.mem_ctrls2.wrQLenPdf::25                     0                       # What write queue length does an incoming req see
system.mem_ctrls2.wrQLenPdf::26                     0                       # What write queue length does an incoming req see
system.mem_ctrls2.wrQLenPdf::27                     0                       # What write queue length does an incoming req see
system.mem_ctrls2.wrQLenPdf::28                     0                       # What write queue length does an incoming req see
system.mem_ctrls2.wrQLenPdf::29                     0                       # What write queue length does an incoming req see
system.mem_ctrls2.wrQLenPdf::30                     0                       # What write queue length does an incoming req see
system.mem_ctrls2.wrQLenPdf::31                     0                       # What write queue length does an incoming req see
system.mem_ctrls2.wrQLenPdf::32                     0                       # What write queue length does an incoming req see
system.mem_ctrls2.wrQLenPdf::33                     0                       # What write queue length does an incoming req see
system.mem_ctrls2.wrQLenPdf::34                     0                       # What write queue length does an incoming req see
system.mem_ctrls2.wrQLenPdf::35                     0                       # What write queue length does an incoming req see
system.mem_ctrls2.wrQLenPdf::36                     0                       # What write queue length does an incoming req see
system.mem_ctrls2.wrQLenPdf::37                     0                       # What write queue length does an incoming req see
system.mem_ctrls2.wrQLenPdf::38                     0                       # What write queue length does an incoming req see
system.mem_ctrls2.wrQLenPdf::39                     0                       # What write queue length does an incoming req see
system.mem_ctrls2.wrQLenPdf::40                     0                       # What write queue length does an incoming req see
system.mem_ctrls2.wrQLenPdf::41                     0                       # What write queue length does an incoming req see
system.mem_ctrls2.wrQLenPdf::42                     0                       # What write queue length does an incoming req see
system.mem_ctrls2.wrQLenPdf::43                     0                       # What write queue length does an incoming req see
system.mem_ctrls2.wrQLenPdf::44                     0                       # What write queue length does an incoming req see
system.mem_ctrls2.wrQLenPdf::45                     0                       # What write queue length does an incoming req see
system.mem_ctrls2.wrQLenPdf::46                     0                       # What write queue length does an incoming req see
system.mem_ctrls2.wrQLenPdf::47                     0                       # What write queue length does an incoming req see
system.mem_ctrls2.wrQLenPdf::48                     0                       # What write queue length does an incoming req see
system.mem_ctrls2.wrQLenPdf::49                     0                       # What write queue length does an incoming req see
system.mem_ctrls2.wrQLenPdf::50                     0                       # What write queue length does an incoming req see
system.mem_ctrls2.wrQLenPdf::51                     0                       # What write queue length does an incoming req see
system.mem_ctrls2.wrQLenPdf::52                     0                       # What write queue length does an incoming req see
system.mem_ctrls2.wrQLenPdf::53                     0                       # What write queue length does an incoming req see
system.mem_ctrls2.wrQLenPdf::54                     0                       # What write queue length does an incoming req see
system.mem_ctrls2.wrQLenPdf::55                     0                       # What write queue length does an incoming req see
system.mem_ctrls2.wrQLenPdf::56                     0                       # What write queue length does an incoming req see
system.mem_ctrls2.wrQLenPdf::57                     0                       # What write queue length does an incoming req see
system.mem_ctrls2.wrQLenPdf::58                     0                       # What write queue length does an incoming req see
system.mem_ctrls2.wrQLenPdf::59                     0                       # What write queue length does an incoming req see
[...]
system.ruby.L2Cache_Controller.Ack_all::total          262                      
system.ruby.L2Cache_Controller.Unblock   |          70      3.94%      3.94% |          70      3.94%      7.87% |          98      5.51%     13.39% |          98      5.51%     18.90% |          98      5.51%     24.41% |         140      7.87%     32.28% |         140      7.87%     40.16% |         140      7.87%     48.03% |         140      7.87%     55.91% |         140      7.87%     63.78% |         140      7.87%     71.65% |         140      7.87%     79.53% |         112      6.30%     85.83% |         112      6.30%     92.13% |          70      3.94%     96.06% |          70      3.94%    100.00%
system.ruby.L2Cache_Controller.Unblock::total         1778                      
system.ruby.L2Cache_Controller.Exclusive_Unblock |       64982      6.23%      6.23% |       64912      6.22%     12.45% |       64622      6.19%     18.64% |       65217      6.25%     24.89% |       64659      6.20%     31.08% |       64619      6.19%     37.27% |       64856      6.21%     43.49% |       65205      6.25%     49.73% |       65168      6.24%     55.98% |       64773      6.21%     62.19% |       66934      6.41%     68.60% |       65466      6.27%     74.87% |       65621      6.29%     81.16% |       65701      6.30%     87.45% |       66415      6.36%     93.82% |       64528      6.18%    100.00%
system.ruby.L2Cache_Controller.Exclusive_Unblock::total      1043678                      
system.ruby.L2Cache_Controller.NP.L1_GET_INSTR |        1302      6.30%      6.30% |        1330      6.44%     12.74% |        1457      7.05%     19.79% |        1247      6.04%     25.83% |        1316      6.37%     32.19% |        1289      6.24%     38.43% |        1260      6.10%     44.53% |        1260      6.10%     50.63% |        1332      6.45%     57.08% |        1134      5.49%     62.56% |        1232      5.96%     68.53% |        1234      5.97%     74.50% |        1208      5.85%     80.35% |        1275      6.17%     86.52% |        1470      7.11%     93.63% |        1316      6.37%    100.00%
system.ruby.L2Cache_Controller.NP.L1_GET_INSTR::total        20662                      
system.ruby.L2Cache_Controller.NP.L1_GETS |        8470      6.32%      6.32% |        8218      6.13%     12.45% |        7980      5.95%     18.40% |        8358      6.23%     24.64% |        8120      6.06%     30.69% |        8317      6.20%     36.90% |        8386      6.26%     43.15% |        8414      6.28%     49.43% |        8513      6.35%     55.78% |        8316      6.20%     61.98% |        8414      6.28%     68.26% |        8456      6.31%     74.57% |        8638      6.44%     81.01% |        8582      6.40%     87.42% |        8428      6.29%     93.70% |        8442      6.30%    100.00%
system.ruby.L2Cache_Controller.NP.L1_GETS::total       134052                      
system.ruby.L2Cache_Controller.NP.L1_GETX |        9400      6.23%      6.23% |        9467      6.27%     12.50% |        9510      6.30%     18.80% |        9459      6.27%     25.07% |        9472      6.28%     31.35% |        9446      6.26%     37.61% |        9460      6.27%     43.88% |        9454      6.26%     50.14% |        9407      6.23%     56.38% |        9394      6.22%     62.60% |        9419      6.24%     68.84% |        9381      6.22%     75.06% |        9379      6.22%     81.27% |        9436      6.25%     87.53% |        9413      6.24%     93.76% |        9412      6.24%    100.00%
system.ruby.L2Cache_Controller.NP.L1_GETX::total       150909                      
system.ruby.L2Cache_Controller.SS.L1_GET_INSTR |         285      4.05%      4.05% |         178      2.53%      6.58% |         302      4.29%     10.87% |          82      1.17%     12.04% |         373      5.30%     17.34% |         110      1.56%     18.91% |         237      3.37%     22.27% |         134      1.90%     24.18% |         163      2.32%     26.50% |          86      1.22%     27.72% |         190      2.70%     30.42% |         183      2.60%     33.02% |         168      2.39%     35.41% |         200      2.84%     38.25% |        4207     59.80%     98.05% |         137      1.95%    100.00%
system.ruby.L2Cache_Controller.SS.L1_GET_INSTR::total         7035                      
system.ruby.L2Cache_Controller.SS.L1_GETS |           0      0.00%      0.00% |           0      0.00%      0.00% |          14     23.73%     23.73% |           0      0.00%     23.73% |           0      0.00%     23.73% |           0      0.00%     23.73% |           0      0.00%     23.73% |           0      0.00%     23.73% |          14     23.73%     47.46% |          14     23.73%     71.19% |           0      0.00%     71.19% |           0      0.00%     71.19% |           0      0.00%     71.19% |          17     28.81%    100.00% |           0      0.00%    100.00% |           0      0.00%    100.00%
system.ruby.L2Cache_Controller.SS.L1_GETS::total           59                      
system.ruby.L2Cache_Controller.SS.L1_GETX |          14      4.33%      4.33% |          14      4.33%      8.67% |          14      4.33%     13.00% |          28      8.67%     21.67% |          28      8.67%     30.34% |          28      8.67%     39.01% |          28      8.67%     47.68% |          28      8.67%     56.35% |          28      8.67%     65.02% |          28      8.67%     73.68% |          15      4.64%     78.33% |          28      8.67%     87.00% |          14      4.33%     91.33% |          14      4.33%     95.67% |           0      0.00%     95.67% |          14      4.33%    100.00%
system.ruby.L2Cache_Controller.SS.L1_GETX::total          323                      
system.ruby.L2Cache_Controller.SS.L1_UPGRADE |          28      3.71%      3.71% |          28      3.71%      7.42% |          56      7.42%     14.83% |          28      3.71%     18.54% |          28      3.71%     22.25% |          56      7.42%     29.67% |          56      7.42%     37.09% |          56      7.42%     44.50% |          56      7.42%     51.92% |          56      7.42%     59.34% |          69      9.14%     68.48% |          56      7.42%     75.89% |          56      7.42%     83.31% |          56      7.42%     90.73% |          42      5.56%     96.29% |          28      3.71%    100.00%
system.ruby.L2Cache_Controller.SS.L1_UPGRADE::total          755                      
system.ruby.L2Cache_Controller.SS.L2_Replacement_clean |          17      6.49%      6.49% |          18      6.87%     13.36% |          18      6.87%     20.23% |          18      6.87%     27.10% |          12      4.58%     31.68% |          17      6.49%     38.17% |          20      7.63%     45.80% |          14      5.34%     51.15% |          17      6.49%     57.63% |           8      3.05%     60.69% |           6      2.29%     62.98% |          14      5.34%     68.32% |          21      8.02%     76.34% |          24      9.16%     85.50% |          18      6.87%     92.37% |          20      7.63%    100.00%
system.ruby.L2Cache_Controller.SS.L2_Replacement_clean::total          262                      
system.ruby.L2Cache_Controller.M.L1_GET_INSTR |          14     25.00%     25.00% |           0      0.00%     25.00% |           0      0.00%     25.00% |           0      0.00%     25.00% |           0      0.00%     25.00% |           0      0.00%     25.00% |           0      0.00%     25.00% |           0      0.00%     25.00% |          14     25.00%     50.00% |          14     25.00%     75.00% |           0      0.00%     75.00% |           0      0.00%     75.00% |           0      0.00%     75.00% |           0      0.00%     75.00% |          14     25.00%    100.00% |           0      0.00%    100.00%
system.ruby.L2Cache_Controller.M.L1_GET_INSTR::total           56                      
system.ruby.L2Cache_Controller.M.L1_GETS |       46058      6.22%      6.22% |       46070      6.22%     12.45% |       46018      6.22%     18.66% |       46356      6.26%     24.93% |       45955      6.21%     31.14% |       45782      6.19%     37.32% |       46007      6.22%     43.54% |       46139      6.23%     49.77% |       46161      6.24%     56.01% |       45929      6.21%     62.21% |       47384      6.40%     68.62% |       46576      6.29%     74.91% |       46560      6.29%     81.20% |       46711      6.31%     87.51% |       46892      6.34%     93.85% |       45549      6.15%    100.00%
system.ruby.L2Cache_Controller.M.L1_GETS::total       740147                      
system.ruby.L2Cache_Controller.M.L1_GETX |        1012      5.79%      5.79% |        1115      6.37%     12.16% |        1044      5.97%     18.13% |         988      5.65%     23.78% |        1056      6.04%     29.81% |         990      5.66%     35.47% |         919      5.25%     40.73% |        1114      6.37%     47.10% |        1003      5.73%     52.83% |        1050      6.00%     58.83% |        1633      9.34%     68.17% |         969      5.54%     73.71% |         974      5.57%     79.28% |         902      5.16%     84.43% |        1640      9.38%     93.81% |        1083      6.19%    100.00%
system.ruby.L2Cache_Controller.M.L1_GETX::total        17492                      
system.ruby.L2Cache_Controller.M.L2_Replacement |           7      4.22%      4.22% |           8      4.82%      9.04% |          10      6.02%     15.06% |           7      4.22%     19.28% |           9      5.42%     24.70% |          15      9.04%     33.73% |          16      9.64%     43.37% |          11      6.63%     50.00% |          11      6.63%     56.63% |           7      4.22%     60.84% |           9      5.42%     66.27% |          12      7.23%     73.49% |          15      9.04%     82.53% |          11      6.63%     89.16% |          12      7.23%     96.39% |           6      3.61%    100.00%
system.ruby.L2Cache_Controller.M.L2_Replacement::total          166                      
system.ruby.L2Cache_Controller.M.L2_Replacement_clean |          31      5.32%      5.32% |          37      6.35%     11.66% |          20      3.43%     15.09% |          38      6.52%     21.61% |          27      4.63%     26.24% |          30      5.15%     31.39% |          36      6.17%     37.56% |          37      6.35%     43.91% |          51      8.75%     52.66% |          39      6.69%     59.35% |          39      6.69%     66.04% |          39      6.69%     72.73% |          48      8.23%     80.96% |          36      6.17%     87.14% |          41      7.03%     94.17% |          34      5.83%    100.00%
system.ruby.L2Cache_Controller.M.L2_Replacement_clean::total          583                      
system.ruby.L2Cache_Controller.MT.L1_GETS |          70      3.94%      3.94% |          70      3.94%      7.87% |          98      5.51%     13.39% |          98      5.51%     18.90% |          98      5.51%     24.41% |         140      7.87%     32.28% |         140      7.87%     40.16% |         140      7.87%     48.03% |         140      7.87%     55.91% |         140      7.87%     63.78% |         140      7.87%     71.65% |         140      7.87%     79.53% |         112      6.30%     85.83% |         112      6.30%     92.13% |          70      3.94%     96.06% |          70      3.94%    100.00%
system.ruby.L2Cache_Controller.MT.L1_GETS::total         1778                      
system.ruby.L2Cache_Controller.MT.L1_PUTX |       64016      6.23%      6.23% |       63946      6.22%     12.45% |       63631      6.19%     18.64% |       64223      6.25%     24.89% |       63667      6.20%     31.09% |       63586      6.19%     37.28% |       63820      6.21%     43.49% |       64172      6.24%     49.73% |       64147      6.24%     55.98% |       63740      6.20%     62.18% |       65899      6.41%     68.59% |       64430      6.27%     74.86% |       64613      6.29%     81.15% |       64694      6.30%     87.45% |       65449      6.37%     93.81% |       63565      6.19%    100.00%
system.ruby.L2Cache_Controller.MT.L1_PUTX::total      1027598                      
system.ruby.L2Cache_Controller.M_I.Mem_Ack |          55      5.44%      5.44% |          63      6.23%     11.67% |          48      4.75%     16.42% |          63      6.23%     22.65% |          48      4.75%     27.40% |          62      6.13%     33.53% |          72      7.12%     40.65% |          62      6.13%     46.79% |          79      7.81%     54.60% |          54      5.34%     59.94% |          54      5.34%     65.28% |          65      6.43%     71.71% |          84      8.31%     80.02% |          71      7.02%     87.04% |          71      7.02%     94.07% |          60      5.93%    100.00%
system.ruby.L2Cache_Controller.M_I.Mem_Ack::total         1011                      
system.ruby.L2Cache_Controller.I_I.Ack_all |          17      6.49%      6.49% |          18      6.87%     13.36% |          18      6.87%     20.23% |          18      6.87%     27.10% |          12      4.58%     31.68% |          17      6.49%     38.17% |          20      7.63%     45.80% |          14      5.34%     51.15% |          17      6.49%     57.63% |           8      3.05%     60.69% |           6      2.29%     62.98% |          14      5.34%     68.32% |          21      8.02%     76.34% |          24      9.16%     85.50% |          18      6.87%     92.37% |          20      7.63%    100.00%
system.ruby.L2Cache_Controller.I_I.Ack_all::total          262                      
system.ruby.L2Cache_Controller.ISS.Mem_Data |        8470      6.32%      6.32% |        8218      6.13%     12.45% |        7980      5.95%     18.40% |        8358      6.23%     24.64% |        8120      6.06%     30.69% |        8317      6.20%     36.90% |        8386      6.26%     43.15% |        8414      6.28%     49.43% |        8513      6.35%     55.78% |        8316      6.20%     61.98% |        8414      6.28%     68.26% |        8456      6.31%     74.57% |        8638      6.44%     81.01% |        8582      6.40%     87.42% |        8428      6.29%     93.70% |        8442      6.30%    100.00%
system.ruby.L2Cache_Controller.ISS.Mem_Data::total       134052                      
system.ruby.L2Cache_Controller.IS.Mem_Data |        1302      6.30%      6.30% |        1330      6.44%     12.74% |        1457      7.05%     19.79% |        1247      6.04%     25.83% |        1316      6.37%     32.19% |        1289      6.24%     38.43% |        1260      6.10%     44.53% |        1260      6.10%     50.63% |        1332      6.45%     57.08% |        1134      5.49%     62.56% |        1232      5.96%     68.53% |        1234      5.97%     74.50% |        1208      5.85%     80.35% |        1275      6.17%     86.52% |        1470      7.11%     93.63% |        1316      6.37%    100.00%
system.ruby.L2Cache_Controller.IS.Mem_Data::total        20662                      
system.ruby.L2Cache_Controller.IM.Mem_Data |        9400      6.23%      6.23% |        9467      6.27%     12.50% |        9510      6.30%     18.80% |        9459      6.27%     25.07% |        9472      6.28%     31.35% |        9446      6.26%     37.61% |        9460      6.27%     43.88% |        9454      6.26%     50.14% |        9407      6.23%     56.38% |        9394      6.22%     62.60% |        9419      6.24%     68.84% |        9381      6.22%     75.06% |        9379      6.22%     81.27% |        9436      6.25%     87.53% |        9413      6.24%     93.76% |        9412      6.24%    100.00%
system.ruby.L2Cache_Controller.IM.Mem_Data::total       150909                      
system.ruby.L2Cache_Controller.SS_MB.Exclusive_Unblock |          42      3.90%      3.90% |          42      3.90%      7.79% |          70      6.49%     14.29% |          56      5.19%     19.48% |          56      5.19%     24.68% |          84      7.79%     32.47% |          84      7.79%     40.26% |          84      7.79%     48.05% |          84      7.79%     55.84% |          84      7.79%     63.64% |          84      7.79%     71.43% |          84      7.79%     79.22% |          70      6.49%     85.71% |          70      6.49%     92.21% |          42      3.90%     96.10% |          42      3.90%    100.00%
system.ruby.L2Cache_Controller.SS_MB.Exclusive_Unblock::total         1078                      
system.ruby.L2Cache_Controller.MT_MB.Exclusive_Unblock |       64940      6.23%      6.23% |       64870      6.22%     12.45% |       64552      6.19%     18.64% |       65161      6.25%     24.89% |       64603      6.20%     31.09% |       64535      6.19%     37.28% |       64772      6.21%     43.49% |       65121      6.25%     49.74% |       65084      6.24%     55.98% |       64689      6.20%     62.18% |       66850      6.41%     68.60% |       65382      6.27%     74.87% |       65551      6.29%     81.15% |       65631      6.29%     87.45% |       66373      6.37%     93.81% |       64486      6.19%    100.00%
system.ruby.L2Cache_Controller.MT_MB.Exclusive_Unblock::total      1042600                      
system.ruby.L2Cache_Controller.MT_IIB.WB_Data |          70      3.98%      3.98% |          70      3.98%      7.96% |          98      5.57%     13.54% |          95      5.40%     18.94% |          95      5.40%     24.35% |         138      7.85%     32.20% |         138      7.85%     40.05% |         138      7.85%     47.90% |         139      7.91%     55.80% |         139      7.91%     63.71% |         138      7.85%     71.56% |         140      7.96%     79.52% |         111      6.31%     85.84% |         111      6.31%     92.15% |          69      3.92%     96.08% |          69      3.92%    100.00%
system.ruby.L2Cache_Controller.MT_IIB.WB_Data::total         1758                      
system.ruby.L2Cache_Controller.MT_IIB.Unblock |           0      0.00%      0.00% |           0      0.00%      0.00% |           0      0.00%      0.00% |           3     15.00%     15.00% |           3     15.00%     30.00% |           2     10.00%     40.00% |           2     10.00%     50.00% |           2     10.00%     60.00% |           1      5.00%     65.00% |           1      5.00%     70.00% |           2     10.00%     80.00% |           0      0.00%     80.00% |           1      5.00%     85.00% |           1      5.00%     90.00% |           1      5.00%     95.00% |           1      5.00%    100.00%
system.ruby.L2Cache_Controller.MT_IIB.Unblock::total           20                      
system.ruby.L2Cache_Controller.MT_IB.WB_Data |           0      0.00%      0.00% |           0      0.00%      0.00% |           0      0.00%      0.00% |           3     15.00%     15.00% |           3     15.00%     30.00% |           2     10.00%     40.00% |           2     10.00%     50.00% |           2     10.00%     60.00% |           1      5.00%     65.00% |           1      5.00%     70.00% |           2     10.00%     80.00% |           0      0.00%     80.00% |           1      5.00%     85.00% |           1      5.00%     90.00% |           1      5.00%     95.00% |           1      5.00%    100.00%
system.ruby.L2Cache_Controller.MT_IB.WB_Data::total           20                      
system.ruby.L2Cache_Controller.MT_SB.Unblock |          70      3.98%      3.98% |          70      3.98%      7.96% |          98      5.57%     13.54% |          95      5.40%     18.94% |          95      5.40%     24.35% |         138      7.85%     32.20% |         138      7.85%     40.05% |         138      7.85%     47.90% |         139      7.91%     55.80% |         139      7.91%     63.71% |         138      7.85%     71.56% |         140      7.96%     79.52% |         111      6.31%     85.84% |         111      6.31%     92.15% |          69      3.92%     96.08% |          69      3.92%    100.00%
system.ruby.L2Cache_Controller.MT_SB.Unblock::total         1758                      

---------- End Simulation Statistics   ----------
