
---------- Begin Simulation Statistics ----------
sim_seconds                                  0.016162                       # Number of seconds simulated
sim_ticks                                 16162409500                       # Number of ticks simulated
final_tick                                16162409500                       # Number of ticks from beginning of simulation (restored from checkpoints and never reset)
sim_freq                                 1000000000000                       # Frequency of simulated ticks
host_inst_rate                                  36927                       # Simulator instruction rate (inst/s)
host_op_rate                                    65151                       # Simulator op (including micro ops) rate (op/s)
host_tick_rate                               11593137                       # Simulator tick rate (ticks/s)
host_mem_usage                                1764840                       # Number of bytes of host memory used
host_seconds                                  1394.14                       # Real time elapsed on the host
sim_insts                                    51480734                       # Number of instructions simulated
sim_ops                                      90829076                       # Number of ops (including micro ops) simulated
system.voltage_domain.voltage                       1                       # Voltage in Volts
system.clk_domain.clock                          1000                       # Clock period in ticks
system.mem_ctrls0.pwrStateResidencyTicks::UNDEFINED  16162409500                       # Cumulative time (in ticks) in various power states
system.mem_ctrls0.bytes_read::ruby.dir_cntrl0     10427200                       # Number of bytes read from this memory
system.mem_ctrls0.bytes_read::total          10427200                       # Number of bytes read from this memory
system.mem_ctrls0.bytes_written::ruby.dir_cntrl0      2209536                       # Number of bytes written to this memory
system.mem_ctrls0.bytes_written::total        2209536                       # Number of bytes written to this memory
system.mem_ctrls0.num_reads::ruby.dir_cntrl0       162925                       # Number of read requests responded to by this memory
system.mem_ctrls0.num_reads::total             162925                       # Number of read requests responded to by this memory
system.mem_ctrls0.num_writes::ruby.dir_cntrl0        34524                       # Number of write requests responded to by this memory
system.mem_ctrls0.num_writes::total             34524                       # Number of write requests responded to by this memory
system.mem_ctrls0.bw_read::ruby.dir_cntrl0    645151331                       # Total read bandwidth from this memory (bytes/s)
system.mem_ctrls0.bw_read::total            645151331                       # Total read bandwidth from this memory (bytes/s)
system.mem_ctrls0.bw_write::ruby.dir_cntrl0    136708329                       # Write bandwidth from this memory (bytes/s)
system.mem_ctrls0.bw_write::total           136708329                       # Write bandwidth from this memory (bytes/s)
system.mem_ctrls0.bw_total::ruby.dir_cntrl0    781859660                       # Total bandwidth to/from this memory (bytes/s)
system.mem_ctrls0.bw_total::total           781859660                       # Total bandwidth to/from this memory (bytes/s)
system.mem_ctrls0.readReqs                     162925                       # Number of read requests accepted
system.mem_ctrls0.avgNetLat                      0.00                       # Average network latency to DRAM controller
system.mem_ctrls0.writeReqs                     34524                       # Number of write requests accepted
system.mem_ctrls0.readBursts                   162925                       # Number of DRAM read bursts, including those serviced by the write queue
system.mem_ctrls0.writeBursts                   34524                       # Number of DRAM write bursts, including those merged in the write queue
system.mem_ctrls0.bytesReadDRAM              10426816                       # Total number of bytes read from DRAM
system.mem_ctrls0.bytesReadWrQ                    384                       # Total number of bytes read from write queue
system.mem_ctrls0.bytesWritten                2207808                       # Total number of bytes written to DRAM
system.mem_ctrls0.bytesReadSys               10427200                       # Total read bytes from the system interface side
system.mem_ctrls0.bytesWrittenSys             2209536                       # Total written bytes from the system interface side
system.mem_ctrls0.servicedByWrQ                     6                       # Number of DRAM read bursts serviced by the write queue
system.mem_ctrls0.mergedWrBursts                    0                       # Number of DRAM write bursts merged with an existing one
system.mem_ctrls0.neitherReadNorWriteReqs            0                       # Number of requests that are neither read nor write
system.mem_ctrls0.perBankRdBursts::0            10476                       # Per bank write bursts
system.mem_ctrls0.perBankRdBursts::1            10273                       # Per bank write bursts
system.mem_ctrls0.perBankRdBursts::2            10312                       # Per bank write bursts
system.mem_ctrls0.perBankRdBursts::3            10098                       # Per bank write bursts
system.mem_ctrls0.perBankRdBursts::4             9841                       # Per bank write bursts
system.mem_ctrls0.perBankRdBursts::5             9646                       # Per bank write bursts
system.mem_ctrls0.perBankRdBursts::6             9525                       # Per bank write bursts
system.mem_ctrls0.perBankRdBursts::7             9739                       # Per bank write bursts
system.mem_ctrls0.perBankRdBursts::8             9774                       # Per bank write bursts
system.mem_ctrls0.perBankRdBursts::9            10149                       # Per bank write bursts
system.mem_ctrls0.perBankRdBursts::10           10840                       # Per bank write bursts
system.mem_ctrls0.perBankRdBursts::11           10575                       # Per bank write bursts
system.mem_ctrls0.perBankRdBursts::12           11083                       # Per bank write bursts
system.mem_ctrls0.perBankRdBursts::13           10494                       # Per bank write bursts
system.mem_ctrls0.perBankRdBursts::14           10057                       # Per bank write bursts
system.mem_ctrls0.perBankRdBursts::15           10037                       # Per bank write bursts
system.mem_ctrls0.perBankWrBursts::0             2206                       # Per bank write bursts
system.mem_ctrls0.perBankWrBursts::1             1992                       # Per bank write bursts
system.mem_ctrls0.perBankWrBursts::2             2211                       # Per bank write bursts
system.mem_ctrls0.perBankWrBursts::3             2280                       # Per bank write bursts
system.mem_ctrls0.perBankWrBursts::4             2385                       # Per bank write bursts
system.mem_ctrls0.perBankWrBursts::5             2102                       # Per bank write bursts
system.mem_ctrls0.perBankWrBursts::6             1982                       # Per bank write bursts
system.mem_ctrls0.perBankWrBursts::7             2210                       # Per bank write bursts
system.mem_ctrls0.perBankWrBursts::8             2334                       # Per bank write bursts
system.mem_ctrls0.perBankWrBursts::9             2094                       # Per bank write bursts
system.mem_ctrls0.perBankWrBursts::10            2147                       # Per bank write bursts
system.mem_ctrls0.perBankWrBursts::11            2111                       # Per bank write bursts
system.mem_ctrls0.perBankWrBursts::12            2212                       # Per bank write bursts
system.mem_ctrls0.perBankWrBursts::13            2056                       # Per bank write bursts
system.mem_ctrls0.perBankWrBursts::14            2100                       # Per bank write bursts
system.mem_ctrls0.perBankWrBursts::15            2075                       # Per bank write bursts
system.mem_ctrls0.numRdRetry                        0                       # Number of times read queue was full causing retry
system.mem_ctrls0.numWrRetry                        0                       # Number of times write queue was full causing retry
system.mem_ctrls0.totGap                  16161468500                       # Total gap between requests
system.mem_ctrls0.readPktSize::0                    0                       # Read request sizes (log2)
system.mem_ctrls0.readPktSize::1                    0                       # Read request sizes (log2)
system.mem_ctrls0.readPktSize::2                    0                       # Read request sizes (log2)
system.mem_ctrls0.readPktSize::3                    0                       # Read request sizes (log2)
system.mem_ctrls0.readPktSize::4                    0                       # Read request sizes (log2)
system.mem_ctrls0.readPktSize::5                    0                       # Read request sizes (log2)
system.mem_ctrls0.readPktSize::6               162925                       # Read request sizes (log2)
system.mem_ctrls0.writePktSize::0                   0                       # Write request sizes (log2)
system.mem_ctrls0.writePktSize::1                   0                       # Write request sizes (log2)
system.mem_ctrls0.writePktSize::2                   0                       # Write request sizes (log2)
system.mem_ctrls0.writePktSize::3                   0                       # Write request sizes (log2)
system.mem_ctrls0.writePktSize::4                   0                       # Write request sizes (log2)
system.mem_ctrls0.writePktSize::5                   0                       # Write request sizes (log2)
system.mem_ctrls0.writePktSize::6               34524                       # Write request sizes (log2)
system.mem_ctrls0.rdQLenPdf::0                  89431                       # What read queue length does an incoming req see
system.mem_ctrls0.rdQLenPdf::1                  43125                       # What read queue length does an incoming req see
system.mem_ctrls0.rdQLenPdf::2                  18627                       # What read queue length does an incoming req see
system.mem_ctrls0.rdQLenPdf::3                   7543                       # What read queue length does an incoming req see
system.mem_ctrls0.rdQLenPdf::4                   2824                       # What read queue length does an incoming req see
system.mem_ctrls0.rdQLenPdf::5                    940                       # What read queue length does an incoming req see
system.mem_ctrls0.rdQLenPdf::6                    301                       # What read queue length does an incoming req see
system.mem_ctrls0.rdQLenPdf::7                     92                       # What read queue length does an incoming req see
system.mem_ctrls0.rdQLenPdf::8                     22                       # What read queue length does an incoming req see
system.mem_ctrls0.rdQLenPdf::9                      6                       # What read queue length does an incoming req see
system.mem_ctrls0.rdQLenPdf::10                     5                       # What read queue length does an incoming req see
system.mem_ctrls0.rdQLenPdf::11                     2                       # What read queue length does an incoming req see
system.mem_ctrls0.rdQLenPdf::12                     1                       # What read queue length does an incoming req see
system.mem_ctrls0.rdQLenPdf::13                     0                       # What read queue length does an incoming req see
system.mem_ctrls0.rdQLenPdf::14                     0                       # What read queue length does an incoming req see
system.mem_ctrls0.rdQLenPdf::15                     0                       # What read queue length does an incoming req see
system.mem_ctrls0.rdQLenPdf::16                     0                       # What read queue length does an incoming req see
system.mem_ctrls0.rdQLenPdf::17                     0                       # What read queue length does an incoming req see
system.mem_ctrls0.rdQLenPdf::18                     0                       # What read queue length does an incoming req see
system.mem_ctrls0.rdQLenPdf::19                     0                       # What read queue length does an incoming req see
system.mem_ctrls0.rdQLenPdf::20                     0                       # What read queue length does an incoming req see
system.mem_ctrls0.rdQLenPdf::21                     0                       # What read queue length does an incoming req see
system.mem_ctrls0.rdQLenPdf::22                     0                       # What read queue length does an incoming req see
system.mem_ctrls0.rdQLenPdf::23                     0                       # What read queue length does an incoming req see
system.mem_ctrls0.rdQLenPdf::24                     0                       # What read queue length does an incoming req see
system.mem_ctrls0.rdQLenPdf::25                     0                       # What read queue length does an incoming req see
system.mem_ctrls0.rdQLenPdf::26                     0                       # What read queue length does an incoming req see
system.mem_ctrls0.rdQLenPdf::27                     0                       # What read queue length does an incoming req see
system.mem_ctrls0.rdQLenPdf::28                     0                       # What read queue length does an incoming req see
system.mem_ctrls0.rdQLenPdf::29                     0                       # What read queue length does an incoming req see
system.mem_ctrls0.rdQLenPdf::30                     0                       # What read queue length does an incoming req see
system.mem_ctrls0.rdQLenPdf::31                     0                       # What read queue length does an incoming req see
system.mem_ctrls0.wrQLenPdf::0                      1                       # What write queue length does an incoming req see
system.mem_ctrls0.wrQLenPdf::1                      1                       # What write queue length does an incoming req see
system.mem_ctrls0.wrQLenPdf::2                      1                       # What write queue length does an incoming req see
system.mem_ctrls0.wrQLenPdf::3                      1                       # What write queue length does an incoming req see
system.mem_ctrls0.wrQLenPdf::4                      1                       # What write queue length does an incoming req see
system.mem_ctrls0.wrQLenPdf::5                      1                       # What write queue length does an incoming req see
system.mem_ctrls0.wrQLenPdf::6                      1                       # What write queue length does an incoming req see
system.mem_ctrls0.wrQLenPdf::7                      1                       # What write queue length does an incoming req see
system.mem_ctrls0.wrQLenPdf::8                      1                       # What write queue length does an incoming req see
system.mem_ctrls0.wrQLenPdf::9                      1                       # What write queue length does an incoming req see
system.mem_ctrls0.wrQLenPdf::10                     1                       # What write queue length does an incoming req see
system.mem_ctrls0.wrQLenPdf::11                     1                       # What write queue length does an incoming req see
system.mem_ctrls0.wrQLenPdf::12                     1                       # What write queue length does an incoming req see
system.mem_ctrls0.wrQLenPdf::13                     1                       # What write queue length does an incoming req see
system.mem_ctrls0.wrQLenPdf::14                     1                       # What write queue length does an incoming req see
system.mem_ctrls0.wrQLenPdf::15                   761                       # What write queue length does an incoming req see
system.mem_ctrls0.wrQLenPdf::16                   834                       # What write queue length does an incoming req see
system.mem_ctrls0.wrQLenPdf::17                  1468                       # What write queue length does an incoming req see
system.mem_ctrls0.wrQLenPdf::18                  1933                       # What write queue length does an incoming req see
system.mem_ctrls0.wrQLenPdf::19                  2069                       # What write queue length does an incoming req see
system.mem_ctrls0.wrQLenPdf::20                  2130                       # What write queue length does an incoming req see
system.mem_ctrls0.wrQLenPdf::21                  2108                       # What write queue length does an incoming req see
system.mem_ctrls0.wrQLenPdf::22                  2118                       # What write queue length does an incoming req see
system.mem_ctrls0.wrQLenPdf::23                  2105                       # What write queue length does an incoming req see
system.mem_ctrls0.wrQLenPdf::24                  2106                       # What write queue length does an incoming req see
system.mem_ctrls0.wrQLenPdf::25                  2119                       # What write queue length does an incoming req see
system.mem_ctrls0.wrQLenPdf::26                  2108                       # What write queue length does an incoming req see
system.mem_ctrls0.wrQLenPdf::27                  2128                       # What write queue length does an incoming req see
system.mem_ctrls0.wrQLenPdf::28                  2110                       # What write queue length does an incoming req see
system.mem_ctrls0.wrQLenPdf::29                  2119                       # What write queue length does an incoming req see
system.mem_ctrls0.wrQLenPdf::30                  2096                       # What write queue length does an incoming req see
system.mem_ctrls0.wrQLenPdf::31                  2065                       # What write queue length does an incoming req see
system.mem_ctrls0.wrQLenPdf::32                  2049                       # What write queue length does an incoming req see
system.mem_ctrls0.wrQLenPdf::33                    59                       # What write queue length does an incoming req see
system.mem_ctrls0.wrQLenPdf::34                    17                       # What write queue length does an incoming req see
system.mem_ctrls0.wrQLenPdf::35                     4                       # What write queue length does an incoming req see
system.mem_ctrls0.wrQLenPdf::36                     2                       # What write queue length does an incoming req see
system.mem_ctrls0.wrQLenPdf::37                     1                       # What write queue length does an incoming req see
system.mem_ctrls0.wrQLenPdf::38                     0                       # What write queue length does an incoming req see
system.mem_ctrls0.wrQLenPdf::39                     0                       # What write queue length does an incoming req see
system.mem_ctrls0.wrQLenPdf::40                     0                       # What write queue length does an incoming req see
system.mem_ctrls0.wrQLenPdf::41                     0                       # What write queue length does an incoming req see
system.mem_ctrls0.wrQLenPdf::42                     0                       # What write queue length does an incoming req see
system.mem_ctrls0.wrQLenPdf::43                     0                       # What write queue length does an incoming req see
system.mem_ctrls0.wrQLenPdf::44                     0                       # What write queue length does an incoming req see
system.mem_ctrls0.wrQLenPdf::45                     0                       # What write queue length does an incoming req see
system.mem_ctrls0.wrQLenPdf::46                     0                       # What write queue length does an incoming req see
system.mem_ctrls0.wrQLenPdf::47                     0                       # What write queue length does an incoming req see
system.mem_ctrls0.wrQLenPdf::48                     0                       # What write queue length does an incoming req see
system.mem_ctrls0.wrQLenPdf::49                     0                       # What write queue length does an incoming req see
system.mem_ctrls0.wrQLenPdf::50                     0                       # What write queue length does an incoming req see
system.mem_ctrls0.wrQLenPdf::51                     0                       # What write queue length does an incoming req see
system.mem_ctrls0.wrQLenPdf::52                     0                       # What write queue length does an incoming req see
system.mem_ctrls0.wrQLenPdf::53                     0                       # What write queue length does an incoming req see
system.mem_ctrls0.wrQLenPdf::54                     0                       # What write queue length does an incoming req see
system.mem_ctrls0.wrQLenPdf::55                     0                       # What write queue length does an incoming req see
system.mem_ctrls0.wrQLenPdf::56                     0                       # What write queue length does an incoming req see
system.mem_ctrls0.wrQLenPdf::57                     0                       # What write queue length does an incoming req see
system.mem_ctrls0.wrQLenPdf::58                     0                       # What write queue length does an incoming req see
system.mem_ctrls0.wrQLenPdf::59                     0                       # What write queue length does an incoming req see
system.mem_ctrls0.wrQLenPdf::60                     0                       # What write queue length does an incoming req see
system.mem_ctrls0.wrQLenPdf::61                     0                       # What write queue length does an incoming req see
system.mem_ctrls0.wrQLenPdf::62                     0                       # What write queue length does an incoming req see
system.mem_ctrls0.wrQLenPdf::63                     0                       # What write queue length does an incoming req see
system.mem_ctrls0.bytesPerActivate::samples       107657                       # Bytes accessed per row activation
system.mem_ctrls0.bytesPerActivate::mean   117.353447                       # Bytes accessed per row activation
system.mem_ctrls0.bytesPerActivate::gmean    92.587188                       # Bytes accessed per row activation
system.mem_ctrls0.bytesPerActivate::stdev   116.164046                       # Bytes accessed per row activation
system.mem_ctrls0.bytesPerActivate::0-127        70151     65.16%     65.16% # Bytes accessed per row activation
system.mem_ctrls0.bytesPerActivate::128-255        26273     24.40%     89.57% # Bytes accessed per row activation
system.mem_ctrls0.bytesPerActivate::256-383         5398      5.01%     94.58% # Bytes accessed per row activation
system.mem_ctrls0.bytesPerActivate::384-511         2815      2.61%     97.19% # Bytes accessed per row activation
system.mem_ctrls0.bytesPerActivate::512-639         1612      1.50%     98.69% # Bytes accessed per row activation
system.mem_ctrls0.bytesPerActivate::640-767          946      0.88%     99.57% # Bytes accessed per row activation
system.mem_ctrls0.bytesPerActivate::768-895          127      0.12%     99.69% # Bytes accessed per row activation
system.mem_ctrls0.bytesPerActivate::896-1023          101      0.09%     99.78% # Bytes accessed per row activation
system.mem_ctrls0.bytesPerActivate::1024-1151          234      0.22%    100.00% # Bytes accessed per row activation
system.mem_ctrls0.bytesPerActivate::total       107657                       # Bytes accessed per row activation
system.mem_ctrls0.rdPerTurnAround::samples         2042                       # Reads before turning the bus around for writes
system.mem_ctrls0.rdPerTurnAround::mean     79.778159                       # Reads before turning the bus around for writes
system.mem_ctrls0.rdPerTurnAround::gmean    34.590223                       # Reads before turning the bus around for writes
system.mem_ctrls0.rdPerTurnAround::stdev   879.630306                       # Reads before turning the bus around for writes
system.mem_ctrls0.rdPerTurnAround::0-2047         2041     99.95%     99.95% # Reads before turning the bus around for writes
system.mem_ctrls0.rdPerTurnAround::38912-40959            1      0.05%    100.00% # Reads before turning the bus around for writes
system.mem_ctrls0.rdPerTurnAround::total         2042                       # Reads before turning the bus around for writes
system.mem_ctrls0.wrPerTurnAround::samples         2042                       # Writes before turning the bus around for reads
system.mem_ctrls0.wrPerTurnAround::mean     16.893732                       # Writes before turning the bus around for reads
system.mem_ctrls0.wrPerTurnAround::gmean    16.857365                       # Writes before turning the bus around for reads
system.mem_ctrls0.wrPerTurnAround::stdev     1.128652                       # Writes before turning the bus around for reads
system.mem_ctrls0.wrPerTurnAround::16            1182     57.88%     57.88% # Writes before turning the bus around for reads
system.mem_ctrls0.wrPerTurnAround::17              74      3.62%     61.51% # Writes before turning the bus around for reads
system.mem_ctrls0.wrPerTurnAround::18             641     31.39%     92.90% # Writes before turning the bus around for reads
system.mem_ctrls0.wrPerTurnAround::19             122      5.97%     98.87% # Writes before turning the bus around for reads
system.mem_ctrls0.wrPerTurnAround::20              19      0.93%     99.80% # Writes before turning the bus around for reads
system.mem_ctrls0.wrPerTurnAround::21               1      0.05%     99.85% # Writes before turning the bus around for reads
system.mem_ctrls0.wrPerTurnAround::22               1      0.05%     99.90% # Writes before turning the bus around for reads
system.mem_ctrls0.wrPerTurnAround::23               1      0.05%     99.95% # Writes before turning the bus around for reads
system.mem_ctrls0.wrPerTurnAround::25               1      0.05%    100.00% # Writes before turning the bus around for reads
system.mem_ctrls0.wrPerTurnAround::total         2042                       # Writes before turning the bus around for reads
system.mem_ctrls0.totQLat                  4390303750                       # Total ticks spent queuing
system.mem_ctrls0.totMemAccLat             7445035000                       # Total ticks spent from burst creation until serviced by the DRAM
system.mem_ctrls0.totBusLat                 814595000                       # Total ticks spent in databus transfers
system.mem_ctrls0.avgQLat                    26947.77                       # Average queueing delay per DRAM burst
system.mem_ctrls0.avgBusLat                   5000.00                       # Average bus latency per DRAM burst
system.mem_ctrls0.avgMemAccLat               45697.77                       # Average memory access latency per DRAM burst
system.mem_ctrls0.avgRdBW                      645.13                       # Average DRAM read bandwidth in MiByte/s
system.mem_ctrls0.avgWrBW                      136.60                       # Average achieved write bandwidth in MiByte/s
system.mem_ctrls0.avgRdBWSys                   645.15                       # Average system read bandwidth in MiByte/s
system.mem_ctrls0.avgWrBWSys                   136.71                       # Average system write bandwidth in MiByte/s
system.mem_ctrls0.peakBW                     12800.00                       # Theoretical peak bandwidth in MiByte/s
system.mem_ctrls0.busUtil                        6.11                       # Data bus utilization in percentage
system.mem_ctrls0.busUtilRead                    5.04                       # Data bus utilization in percentage for reads
system.mem_ctrls0.busUtilWrite                   1.07                       # Data bus utilization in percentage for writes
system.mem_ctrls0.avgRdQLen                      1.53                       # Average read queue length when enqueuing
system.mem_ctrls0.avgWrQLen                     15.51                       # Average write queue length when enqueuing
system.mem_ctrls0.readRowHits                   79618                       # Number of row buffer hits during reads
system.mem_ctrls0.writeRowHits                  10136                       # Number of row buffer hits during writes
system.mem_ctrls0.readRowHitRate                48.87                       # Row buffer hit rate for reads
system.mem_ctrls0.writeRowHitRate               29.36                       # Row buffer hit rate for writes
system.mem_ctrls0.avgGap                     81851.36                       # Average gap between requests
system.mem_ctrls0.pageHitRate                   45.46                       # Row buffer hit rate, read and write combined
system.mem_ctrls0_0.actEnergy               374364480                       # Energy for activate commands per rank (pJ)
system.mem_ctrls0_0.preEnergy               198979440                       # Energy for precharge commands per rank (pJ)
system.mem_ctrls0_0.readEnergy              570557400                       # Energy for read commands per rank (pJ)
system.mem_ctrls0_0.writeEnergy              90660960                       # Energy for write commands per rank (pJ)
system.mem_ctrls0_0.refreshEnergy        1279680480.000000                       # Energy for refresh commands per rank (pJ)
system.mem_ctrls0_0.actBackEnergy          1639298910                       # Energy for active background per rank (pJ)
system.mem_ctrls0_0.preBackEnergy            29816160                       # Energy for precharge background per rank (pJ)
system.mem_ctrls0_0.actPowerDownEnergy     5394297600                       # Energy for active power-down per rank (pJ)
system.mem_ctrls0_0.prePowerDownEnergy      241645920                       # Energy for precharge power-down per rank (pJ)
system.mem_ctrls0_0.selfRefreshEnergy        13523340                       # Energy for self refresh per rank (pJ)
system.mem_ctrls0_0.totalEnergy            9832824690                       # Total energy per rank (pJ)
system.mem_ctrls0_0.averagePower           608.371910                       # Core power per rank (mW)
system.mem_ctrls0_0.totalIdleTime         12489984500                       # Total Idle time Per DRAM Rank
system.mem_ctrls0_0.memoryStateTime::IDLE     13990250                       # Time in different power states
system.mem_ctrls0_0.memoryStateTime::REF    541284250                       # Time in different power states
system.mem_ctrls0_0.memoryStateTime::SREF     31035750                       # Time in different power states
system.mem_ctrls0_0.memoryStateTime::PRE_PDN    629075000                       # Time in different power states
system.mem_ctrls0_0.memoryStateTime::ACT   3117150500                       # Time in different power states
system.mem_ctrls0_0.memoryStateTime::ACT_PDN  11829873750                       # Time in different power states
system.mem_ctrls0_1.actEnergy               394342200                       # Energy for activate commands per rank (pJ)
system.mem_ctrls0_1.preEnergy               209578875                       # Energy for precharge commands per rank (pJ)
system.mem_ctrls0_1.readEnergy              592684260                       # Energy for read commands per rank (pJ)
system.mem_ctrls0_1.writeEnergy              89413380                       # Energy for write commands per rank (pJ)
system.mem_ctrls0_1.refreshEnergy        1279680480.000000                       # Energy for refresh commands per rank (pJ)
system.mem_ctrls0_1.actBackEnergy          1704387210                       # Energy for active background per rank (pJ)
system.mem_ctrls0_1.preBackEnergy            29816160                       # Energy for precharge background per rank (pJ)
system.mem_ctrls0_1.actPowerDownEnergy     5363638440                       # Energy for active power-down per rank (pJ)
system.mem_ctrls0_1.prePowerDownEnergy      215293440                       # Energy for precharge power-down per rank (pJ)
system.mem_ctrls0_1.selfRefreshEnergy        11875245                       # Energy for self refresh per rank (pJ)
system.mem_ctrls0_1.totalEnergy            9890819280                       # Total energy per rank (pJ)
system.mem_ctrls0_1.averagePower           611.964384                       # Core power per rank (mW)
system.mem_ctrls0_1.totalIdleTime         12346764000                       # Total Idle time Per DRAM Rank
system.mem_ctrls0_1.memoryStateTime::IDLE     14042000                       # Time in different power states
system.mem_ctrls0_1.memoryStateTime::REF    541386000                       # Time in different power states
system.mem_ctrls0_1.memoryStateTime::SREF     23799250                       # Time in different power states
system.mem_ctrls0_1.memoryStateTime::PRE_PDN    560418500                       # Time in different power states
system.mem_ctrls0_1.memoryStateTime::ACT   3259370750                       # Time in different power states
system.mem_ctrls0_1.memoryStateTime::ACT_PDN  11763393000                       # Time in different power states
system.mem_ctrls1.pwrStateResidencyTicks::UNDEFINED  16162409500                       # Cumulative time (in ticks) in various power states
system.mem_ctrls1.bytes_read::ruby.dir_cntrl1     10475136                       # Number of bytes read from this memory
system.mem_ctrls1.bytes_read::total          10475136                       # Number of bytes read from this memory
system.mem_ctrls1.bytes_written::ruby.dir_cntrl1      2232512                       # Number of bytes written to this memory
system.mem_ctrls1.bytes_written::total        2232512                       # Number of bytes written to this memory
system.mem_ctrls1.num_reads::ruby.dir_cntrl1       163674                       # Number of read requests responded to by this memory
system.mem_ctrls1.num_reads::total             163674                       # Number of read requests responded to by this memory
system.mem_ctrls1.num_writes::ruby.dir_cntrl1        34883                       # Number of write requests responded to by this memory
system.mem_ctrls1.num_writes::total             34883                       # Number of write requests responded to by this memory
system.mem_ctrls1.bw_read::ruby.dir_cntrl1    648117225                       # Total read bandwidth from this memory (bytes/s)
system.mem_ctrls1.bw_read::total            648117225                       # Total read bandwidth from this memory (bytes/s)
system.mem_ctrls1.bw_write::ruby.dir_cntrl1    138129900                       # Write bandwidth from this memory (bytes/s)
system.mem_ctrls1.bw_write::total           138129900                       # Write bandwidth from this memory (bytes/s)
system.mem_ctrls1.bw_total::ruby.dir_cntrl1    786247125                       # Total bandwidth to/from this memory (bytes/s)
system.mem_ctrls1.bw_total::total           786247125                       # Total bandwidth to/from this memory (bytes/s)
system.mem_ctrls1.readReqs                     163674                       # Number of read requests accepted
system.mem_ctrls1.avgNetLat                      0.00                       # Average network latency to DRAM controller
system.mem_ctrls1.writeReqs                     34883                       # Number of write requests accepted
system.mem_ctrls1.readBursts                   163674                       # Number of DRAM read bursts, including those serviced by the write queue
system.mem_ctrls1.writeBursts                   34883                       # Number of DRAM write bursts, including those merged in the write queue
system.mem_ctrls1.bytesReadDRAM              10473664                       # Total number of bytes read from DRAM
system.mem_ctrls1.bytesReadWrQ                   1472                       # Total number of bytes read from write queue
system.mem_ctrls1.bytesWritten                2231040                       # Total number of bytes written to DRAM
system.mem_ctrls1.bytesReadSys               10475136                       # Total read bytes from the system interface side
system.mem_ctrls1.bytesWrittenSys             2232512                       # Total written bytes from the system interface side
system.mem_ctrls1.servicedByWrQ                    23                       # Number of DRAM read bursts serviced by the write queue
system.mem_ctrls1.mergedWrBursts                    0                       # Number of DRAM write bursts merged with an existing one
system.mem_ctrls1.neitherReadNorWriteReqs            0                       # Number of requests that are neither read nor write
system.mem_ctrls1.perBankRdBursts::0            10435                       # Per bank write bursts
system.mem_ctrls1.perBankRdBursts::1            10289                       # Per bank write bursts
system.mem_ctrls1.perBankRdBursts::2            10386                       # Per bank write bursts
system.mem_ctrls1.perBankRdBursts::3            10165                       # Per bank write bursts
system.mem_ctrls1.perBankRdBursts::4             9897                       # Per bank write bursts
system.mem_ctrls1.perBankRdBursts::5             9699                       # Per bank write bursts
system.mem_ctrls1.perBankRdBursts::6             9612                       # Per bank write bursts
system.mem_ctrls1.perBankRdBursts::7             9783                       # Per bank write bursts
system.mem_ctrls1.perBankRdBursts::8             9807                       # Per bank write bursts
system.mem_ctrls1.perBankRdBursts::9            10169                       # Per bank write bursts
system.mem_ctrls1.perBankRdBursts::10           10907                       # Per bank write bursts
system.mem_ctrls1.perBankRdBursts::11           10653                       # Per bank write bursts
system.mem_ctrls1.perBankRdBursts::12           11126                       # Per bank write bursts
system.mem_ctrls1.perBankRdBursts::13           10568                       # Per bank write bursts
system.mem_ctrls1.perBankRdBursts::14           10107                       # Per bank write bursts
system.mem_ctrls1.perBankRdBursts::15           10048                       # Per bank write bursts
system.mem_ctrls1.perBankWrBursts::0             2185                       # Per bank write bursts
system.mem_ctrls1.perBankWrBursts::1             2001                       # Per bank write bursts
system.mem_ctrls1.perBankWrBursts::2             2244                       # Per bank write bursts
system.mem_ctrls1.perBankWrBursts::3             2292                       # Per bank write bursts
system.mem_ctrls1.perBankWrBursts::4             2457                       # Per bank write bursts
system.mem_ctrls1.perBankWrBursts::5             2131                       # Per bank write bursts
system.mem_ctrls1.perBankWrBursts::6             2013                       # Per bank write bursts
system.mem_ctrls1.perBankWrBursts::7             2219                       # Per bank write bursts
system.mem_ctrls1.perBankWrBursts::8             2352                       # Per bank write bursts
system.mem_ctrls1.perBankWrBursts::9             2074                       # Per bank write bursts
system.mem_ctrls1.perBankWrBursts::10            2198                       # Per bank write bursts
system.mem_ctrls1.perBankWrBursts::11            2143                       # Per bank write bursts
system.mem_ctrls1.perBankWrBursts::12            2226                       # Per bank write bursts
system.mem_ctrls1.perBankWrBursts::13            2060                       # Per bank write bursts
system.mem_ctrls1.perBankWrBursts::14            2160                       # Per bank write bursts
system.mem_ctrls1.perBankWrBursts::15            2105                       # Per bank write bursts
system.mem_ctrls1.numRdRetry                        0                       # Number of times read queue was full causing retry
system.mem_ctrls1.numWrRetry                        0                       # Number of times write queue was full causing retry
system.mem_ctrls1.totGap                  16161881000                       # Total gap between requests
system.mem_ctrls1.readPktSize::0                    0                       # Read request sizes (log2)
system.mem_ctrls1.readPktSize::1                    0                       # Read request sizes (log2)
system.mem_ctrls1.readPktSize::2                    0                       # Read request sizes (log2)
system.mem_ctrls1.readPktSize::3                    0                       # Read request sizes (log2)
system.mem_ctrls1.readPktSize::4                    0                       # Read request sizes (log2)
system.mem_ctrls1.readPktSize::5                    0                       # Read request sizes (log2)
system.mem_ctrls1.readPktSize::6               163674                       # Read request sizes (log2)
system.mem_ctrls1.writePktSize::0                   0                       # Write request sizes (log2)
system.mem_ctrls1.writePktSize::1                   0                       # Write request sizes (log2)
system.mem_ctrls1.writePktSize::2                   0                       # Write request sizes (log2)
system.mem_ctrls1.writePktSize::3                   0                       # Write request sizes (log2)
system.mem_ctrls1.writePktSize::4                   0                       # Write request sizes (log2)
system.mem_ctrls1.writePktSize::5                   0                       # Write request sizes (log2)
system.mem_ctrls1.writePktSize::6               34883                       # Write request sizes (log2)
system.mem_ctrls1.rdQLenPdf::0                  89407                       # What read queue length does an incoming req see
system.mem_ctrls1.rdQLenPdf::1                  43537                       # What read queue length does an incoming req see
system.mem_ctrls1.rdQLenPdf::2                  18876                       # What read queue length does an incoming req see
system.mem_ctrls1.rdQLenPdf::3                   7654                       # What read queue length does an incoming req see
system.mem_ctrls1.rdQLenPdf::4                   2779                       # What read queue length does an incoming req see
system.mem_ctrls1.rdQLenPdf::5                    953                       # What read queue length does an incoming req see
system.mem_ctrls1.rdQLenPdf::6                    307                       # What read queue length does an incoming req see
system.mem_ctrls1.rdQLenPdf::7                     96                       # What read queue length does an incoming req see
system.mem_ctrls1.rdQLenPdf::8                     31                       # What read queue length does an incoming req see
system.mem_ctrls1.rdQLenPdf::9                      9                       # What read queue length does an incoming req see
system.mem_ctrls1.rdQLenPdf::10                     2                       # What read queue length does an incoming req see
system.mem_ctrls1.rdQLenPdf::11                     0                       # What read queue length does an incoming req see
system.mem_ctrls1.rdQLenPdf::12                     0                       # What read queue length does an incoming req see
system.mem_ctrls1.rdQLenPdf::13                     0                       # What read queue length does an incoming req see
system.mem_ctrls1.rdQLenPdf::14                     0                       # What read queue length does an incoming req see
system.mem_ctrls1.rdQLenPdf::15                     0                       # What read queue length does an incoming req see
system.mem_ctrls1.rdQLenPdf::16                     0                       # What read queue length does an incoming req see
system.mem_ctrls1.rdQLenPdf::17                     0                       # What read queue length does an incoming req see
system.mem_ctrls1.rdQLenPdf::18                     0                       # What read queue length does an incoming req see
system.mem_ctrls1.rdQLenPdf::19                     0                       # What read queue length does an incoming req see
system.mem_ctrls1.rdQLenPdf::20                     0                       # What read queue length does an incoming req see
system.mem_ctrls1.rdQLenPdf::21                     0                       # What read queue length does an incoming req see
system.mem_ctrls1.rdQLenPdf::22                     0                       # What read queue length does an incoming req see
system.mem_ctrls1.rdQLenPdf::23                     0                       # What read queue length does an incoming req see
system.mem_ctrls1.rdQLenPdf::24                     0                       # What read queue length does an incoming req see
system.mem_ctrls1.rdQLenPdf::25                     0                       # What read queue length does an incoming req see
system.mem_ctrls1.rdQLenPdf::26                     0                       # What read queue length does an incoming req see
system.mem_ctrls1.rdQLenPdf::27                     0                       # What read queue length does an incoming req see
system.mem_ctrls1.rdQLenPdf::28                     0                       # What read queue length does an incoming req see
system.mem_ctrls1.rdQLenPdf::29                     0                       # What read queue length does an incoming req see
system.mem_ctrls1.rdQLenPdf::30                     0                       # What read queue length does an incoming req see
system.mem_ctrls1.rdQLenPdf::31                     0                       # What read queue length does an incoming req see
system.mem_ctrls1.wrQLenPdf::0                      1                       # What write queue length does an incoming req see
system.mem_ctrls1.wrQLenPdf::1                      1                       # What write queue length does an incoming req see
system.mem_ctrls1.wrQLenPdf::2                      1                       # What write queue length does an incoming req see
system.mem_ctrls1.wrQLenPdf::3                      1                       # What write queue length does an incoming req see
system.mem_ctrls1.wrQLenPdf::4                      1                       # What write queue length does an incoming req see
system.mem_ctrls1.wrQLenPdf::5                      1                       # What write queue length does an incoming req see
system.mem_ctrls1.wrQLenPdf::6                      1                       # What write queue length does an incoming req see
system.mem_ctrls1.wrQLenPdf::7                      1                       # What write queue length does an incoming req see
system.mem_ctrls1.wrQLenPdf::8                      1                       # What write queue length does an incoming req see
system.mem_ctrls1.wrQLenPdf::9                      1                       # What write queue length does an incoming req see
system.mem_ctrls1.wrQLenPdf::10                     1                       # What write queue length does an incoming req see
system.mem_ctrls1.wrQLenPdf::11                     1                       # What write queue length does an incoming req see
system.mem_ctrls1.wrQLenPdf::12                     1                       # What write queue length does an incoming req see
system.mem_ctrls1.wrQLenPdf::13                     1                       # What write queue length does an incoming req see
system.mem_ctrls1.wrQLenPdf::14                     1                       # What write queue length does an incoming req see
system.mem_ctrls1.wrQLenPdf::15                   747                       # What write queue length does an incoming req see
system.mem_ctrls1.wrQLenPdf::16                   833                       # What write queue length does an incoming req see
system.mem_ctrls1.wrQLenPdf::17                  1488                       # What write queue length does an incoming req see
system.mem_ctrls1.wrQLenPdf::18                  1967                       # What write queue length does an incoming req see
system.mem_ctrls1.wrQLenPdf::19                  2096                       # What write queue length does an incoming req see
system.mem_ctrls1.wrQLenPdf::20                  2126                       # What write queue length does an incoming req see
system.mem_ctrls1.wrQLenPdf::21                  2152                       # What write queue length does an incoming req see
system.mem_ctrls1.wrQLenPdf::22                  2137                       # What write queue length does an incoming req see
system.mem_ctrls1.wrQLenPdf::23                  2141                       # What write queue length does an incoming req see
system.mem_ctrls1.wrQLenPdf::24                  2133                       # What write queue length does an incoming req see
system.mem_ctrls1.wrQLenPdf::25                  2142                       # What write queue length does an incoming req see
system.mem_ctrls1.wrQLenPdf::26                  2140                       # What write queue length does an incoming req see
system.mem_ctrls1.wrQLenPdf::27                  2128                       # What write queue length does an incoming req see
system.mem_ctrls1.wrQLenPdf::28                  2149                       # What write queue length does an incoming req see
system.mem_ctrls1.wrQLenPdf::29                  2134                       # What write queue length does an incoming req see
system.mem_ctrls1.wrQLenPdf::30                  2111                       # What write queue length does an incoming req see
system.mem_ctrls1.wrQLenPdf::31                  2089                       # What write queue length does an incoming req see
system.mem_ctrls1.wrQLenPdf::32                  2083                       # What write queue length does an incoming req see
system.mem_ctrls1.wrQLenPdf::33                    41                       # What write queue length does an incoming req see
system.mem_ctrls1.wrQLenPdf::34                    18                       # What write queue length does an incoming req see
system.mem_ctrls1.wrQLenPdf::35                     5                       # What write queue length does an incoming req see
system.mem_ctrls1.wrQLenPdf::36                     4                       # What write queue length does an incoming req see
system.mem_ctrls1.wrQLenPdf::37                     2                       # What write queue length does an incoming req see
system.mem_ctrls1.wrQLenPdf::38                     2                       # What write queue length does an incoming req see
system.mem_ctrls1.wrQLenPdf::39                     0                       # What write queue length does an incoming req see
system.mem_ctrls1.wrQLenPdf::40                     0                       # What write queue length does an incoming req see
system.mem_ctrls1.wrQLenPdf::41                     0                       # What write queue length does an incoming req see
system.mem_ctrls1.wrQLenPdf::42                     0                       # What write queue length does an incoming req see
system.mem_ctrls1.wrQLenPdf::43                     0                       # What write queue length does an incoming req see
system.mem_ctrls1.wrQLenPdf::44                     0                       # What write queue length does an incoming req see
system.mem_ctrls1.wrQLenPdf::45                     0                       # What write queue length does an incoming req see
system.mem_ctrls1.wrQLenPdf::46                     0                       # What write queue length does an incoming req see
system.mem_ctrls1.wrQLenPdf::47                     0                       # What write queue length does an incoming req see
system.mem_ctrls1.wrQLenPdf::48                     0                       # What write queue length does an incoming req see
system.mem_ctrls1.wrQLenPdf::49                     0                       # What write queue length does an incoming req see
system.mem_ctrls1.wrQLenPdf::50                     0                       # What write queue length does an incoming req see
system.mem_ctrls1.wrQLenPdf::51                     0                       # What write queue length does an incoming req see
system.mem_ctrls1.wrQLenPdf::52                     0                       # What write queue length does an incoming req see
system.mem_ctrls1.wrQLenPdf::53                     0                       # What write queue length does an incoming req see
system.mem_ctrls1.wrQLenPdf::54                     0                       # What write queue length does an incoming req see
system.mem_ctrls1.wrQLenPdf::55                     0                       # What write queue length does an incoming req see
system.mem_ctrls1.wrQLenPdf::56                     0                       # What write queue length does an incoming req see
system.mem_ctrls1.wrQLenPdf::57                     0                       # What write queue length does an incoming req see
system.mem_ctrls1.wrQLenPdf::58                     0                       # What write queue length does an incoming req see
system.mem_ctrls1.wrQLenPdf::59                     0                       # What write queue length does an incoming req see
system.mem_ctrls1.wrQLenPdf::60                     0                       # What write queue length does an incoming req see
system.mem_ctrls1.wrQLenPdf::61                     0                       # What write queue length does an incoming req see
system.mem_ctrls1.wrQLenPdf::62                     0                       # What write queue length does an incoming req see
system.mem_ctrls1.wrQLenPdf::63                     0                       # What write queue length does an incoming req see
system.mem_ctrls1.bytesPerActivate::samples       108863                       # Bytes accessed per row activation
system.mem_ctrls1.bytesPerActivate::mean   116.699485                       # Bytes accessed per row activation
system.mem_ctrls1.bytesPerActivate::gmean    92.197250                       # Bytes accessed per row activation
system.mem_ctrls1.bytesPerActivate::stdev   115.799581                       # Bytes accessed per row activation
system.mem_ctrls1.bytesPerActivate::0-127        71342     65.53%     65.53% # Bytes accessed per row activation
system.mem_ctrls1.bytesPerActivate::128-255        26326     24.18%     89.72% # Bytes accessed per row activation
system.mem_ctrls1.bytesPerActivate::256-383         5470      5.02%     94.74% # Bytes accessed per row activation
system.mem_ctrls1.bytesPerActivate::384-511         2740      2.52%     97.26% # Bytes accessed per row activation
system.mem_ctrls1.bytesPerActivate::512-639         1533      1.41%     98.67% # Bytes accessed per row activation
system.mem_ctrls1.bytesPerActivate::640-767          962      0.88%     99.55% # Bytes accessed per row activation
system.mem_ctrls1.bytesPerActivate::768-895          140      0.13%     99.68% # Bytes accessed per row activation
system.mem_ctrls1.bytesPerActivate::896-1023          100      0.09%     99.77% # Bytes accessed per row activation
system.mem_ctrls1.bytesPerActivate::1024-1151          250      0.23%    100.00% # Bytes accessed per row activation
system.mem_ctrls1.bytesPerActivate::total       108863                       # Bytes accessed per row activation
system.mem_ctrls1.rdPerTurnAround::samples         2068                       # Reads before turning the bus around for writes
system.mem_ctrls1.rdPerTurnAround::mean     79.130077                       # Reads before turning the bus around for writes
system.mem_ctrls1.rdPerTurnAround::gmean    34.259796                       # Reads before turning the bus around for writes
system.mem_ctrls1.rdPerTurnAround::stdev   840.656126                       # Reads before turning the bus around for writes
system.mem_ctrls1.rdPerTurnAround::0-2047         2066     99.90%     99.90% # Reads before turning the bus around for writes
system.mem_ctrls1.rdPerTurnAround::2048-4095            1      0.05%     99.95% # Reads before turning the bus around for writes
system.mem_ctrls1.rdPerTurnAround::36864-38911            1      0.05%    100.00% # Reads before turning the bus around for writes
system.mem_ctrls1.rdPerTurnAround::total         2068                       # Reads before turning the bus around for writes
system.mem_ctrls1.wrPerTurnAround::samples         2068                       # Writes before turning the bus around for reads
system.mem_ctrls1.wrPerTurnAround::mean     16.856867                       # Writes before turning the bus around for reads
system.mem_ctrls1.wrPerTurnAround::gmean    16.821148                       # Writes before turning the bus around for reads
system.mem_ctrls1.wrPerTurnAround::stdev     1.119738                       # Writes before turning the bus around for reads
system.mem_ctrls1.wrPerTurnAround::16            1226     59.28%     59.28% # Writes before turning the bus around for reads
system.mem_ctrls1.wrPerTurnAround::17              81      3.92%     63.20% # Writes before turning the bus around for reads
system.mem_ctrls1.wrPerTurnAround::18             632     30.56%     93.76% # Writes before turning the bus around for reads
system.mem_ctrls1.wrPerTurnAround::19             105      5.08%     98.84% # Writes before turning the bus around for reads
system.mem_ctrls1.wrPerTurnAround::20              16      0.77%     99.61% # Writes before turning the bus around for reads
system.mem_ctrls1.wrPerTurnAround::21               4      0.19%     99.81% # Writes before turning the bus around for reads
system.mem_ctrls1.wrPerTurnAround::22               2      0.10%     99.90% # Writes before turning the bus around for reads
system.mem_ctrls1.wrPerTurnAround::24               2      0.10%    100.00% # Writes before turning the bus around for reads
system.mem_ctrls1.wrPerTurnAround::total         2068                       # Writes before turning the bus around for reads
system.mem_ctrls1.totQLat                  4429875250                       # Total ticks spent queuing
system.mem_ctrls1.totMemAccLat             7498331500                       # Total ticks spent from burst creation until serviced by the DRAM
system.mem_ctrls1.totBusLat                 818255000                       # Total ticks spent in databus transfers
system.mem_ctrls1.avgQLat                    27069.04                       # Average queueing delay per DRAM burst
system.mem_ctrls1.avgBusLat                   5000.00                       # Average bus latency per DRAM burst
system.mem_ctrls1.avgMemAccLat               45819.04                       # Average memory access latency per DRAM burst
system.mem_ctrls1.avgRdBW                      648.03                       # Average DRAM read bandwidth in MiByte/s
system.mem_ctrls1.avgWrBW                      138.04                       # Average achieved write bandwidth in MiByte/s
system.mem_ctrls1.avgRdBWSys                   648.12                       # Average system read bandwidth in MiByte/s
system.mem_ctrls1.avgWrBWSys                   138.13                       # Average system write bandwidth in MiByte/s
system.mem_ctrls1.peakBW                     12800.00                       # Theoretical peak bandwidth in MiByte/s
system.mem_ctrls1.busUtil                        6.14                       # Data bus utilization in percentage
system.mem_ctrls1.busUtilRead                    5.06                       # Data bus utilization in percentage for reads
system.mem_ctrls1.busUtilWrite                   1.08                       # Data bus utilization in percentage for writes
system.mem_ctrls1.avgRdQLen                      1.53                       # Average read queue length when enqueuing
system.mem_ctrls1.avgWrQLen                     15.71                       # Average write queue length when enqueuing
system.mem_ctrls1.readRowHits                   79313                       # Number of row buffer hits during reads
system.mem_ctrls1.writeRowHits                  10332                       # Number of row buffer hits during writes
system.mem_ctrls1.readRowHitRate                48.46                       # Row buffer hit rate for reads
system.mem_ctrls1.writeRowHitRate               29.62                       # Row buffer hit rate for writes
system.mem_ctrls1.avgGap                     81396.68                       # Average gap between requests
system.mem_ctrls1.pageHitRate                   45.15                       # Row buffer hit rate, read and write combined
system.mem_ctrls1_0.actEnergy               378005880                       # Energy for activate commands per rank (pJ)
system.mem_ctrls1_0.preEnergy               200914890                       # Energy for precharge commands per rank (pJ)
system.mem_ctrls1_0.readEnergy              573099240                       # Energy for read commands per rank (pJ)
system.mem_ctrls1_0.writeEnergy              91569240                       # Energy for write commands per rank (pJ)
system.mem_ctrls1_0.refreshEnergy        1279680480.000000                       # Energy for refresh commands per rank (pJ)
system.mem_ctrls1_0.actBackEnergy          1638336180                       # Energy for active background per rank (pJ)
system.mem_ctrls1_0.preBackEnergy            30030240                       # Energy for precharge background per rank (pJ)
system.mem_ctrls1_0.actPowerDownEnergy     5377461510                       # Energy for active power-down per rank (pJ)
system.mem_ctrls1_0.prePowerDownEnergy      251307840                       # Energy for precharge power-down per rank (pJ)
system.mem_ctrls1_0.selfRefreshEnergy        17825325                       # Energy for self refresh per rank (pJ)
system.mem_ctrls1_0.totalEnergy            9838257765                       # Total energy per rank (pJ)
system.mem_ctrls1_0.averagePower           608.712300                       # Core power per rank (mW)
system.mem_ctrls1_0.totalIdleTime         12490147750                       # Total Idle time Per DRAM Rank
system.mem_ctrls1_0.memoryStateTime::IDLE     14474750                       # Time in different power states
system.mem_ctrls1_0.memoryStateTime::REF    541410000                       # Time in different power states
system.mem_ctrls1_0.memoryStateTime::SREF     44171250                       # Time in different power states
system.mem_ctrls1_0.memoryStateTime::PRE_PDN    654261000                       # Time in different power states
system.mem_ctrls1_0.memoryStateTime::ACT   3115131750                       # Time in different power states
system.mem_ctrls1_0.memoryStateTime::ACT_PDN  11792960750                       # Time in different power states
system.mem_ctrls1_1.actEnergy               399297360                       # Energy for activate commands per rank (pJ)
system.mem_ctrls1_1.preEnergy               212220195                       # Energy for precharge commands per rank (pJ)
system.mem_ctrls1_1.readEnergy              595368900                       # Energy for read commands per rank (pJ)
system.mem_ctrls1_1.writeEnergy              90399960                       # Energy for write commands per rank (pJ)
system.mem_ctrls1_1.refreshEnergy        1278451200.000000                       # Energy for refresh commands per rank (pJ)
system.mem_ctrls1_1.actBackEnergy          1700894250                       # Energy for active background per rank (pJ)
system.mem_ctrls1_1.preBackEnergy            29945280                       # Energy for precharge background per rank (pJ)
system.mem_ctrls1_1.actPowerDownEnergy     5351423340                       # Energy for active power-down per rank (pJ)
system.mem_ctrls1_1.prePowerDownEnergy      231802080                       # Energy for precharge power-down per rank (pJ)
system.mem_ctrls1_1.selfRefreshEnergy    7505880.000000                       # Energy for self refresh per rank (pJ)
system.mem_ctrls1_1.totalEnergy            9897308445                       # Total energy per rank (pJ)
system.mem_ctrls1_1.averagePower           612.365881                       # Core power per rank (mW)
system.mem_ctrls1_1.totalIdleTime         12354840500                       # Total Idle time Per DRAM Rank
system.mem_ctrls1_1.memoryStateTime::IDLE     13586000                       # Time in different power states
system.mem_ctrls1_1.memoryStateTime::REF    540848000                       # Time in different power states
system.mem_ctrls1_1.memoryStateTime::SREF     15164250                       # Time in different power states
system.mem_ctrls1_1.memoryStateTime::PRE_PDN    603402750                       # Time in different power states
system.mem_ctrls1_1.memoryStateTime::ACT   3253026250                       # Time in different power states
system.mem_ctrls1_1.memoryStateTime::ACT_PDN  11736382250                       # Time in different power states
system.mem_ctrls2.pwrStateResidencyTicks::UNDEFINED  16162409500                       # Cumulative time (in ticks) in various power states
system.mem_ctrls2.bytes_read::ruby.dir_cntrl2     10421376                       # Number of bytes read from this memory
system.mem_ctrls2.bytes_read::total          10421376                       # Number of bytes read from this memory
system.mem_ctrls2.bytes_written::ruby.dir_cntrl2      2213120                       # Number of bytes written to this memory
system.mem_ctrls2.bytes_written::total        2213120                       # Number of bytes written to this memory
system.mem_ctrls2.num_reads::ruby.dir_cntrl2       162834                       # Number of read requests responded to by this memory
system.mem_ctrls2.num_reads::total             162834                       # Number of read requests responded to by this memory
system.mem_ctrls2.num_writes::ruby.dir_cntrl2        34580                       # Number of write requests responded to by this memory
system.mem_ctrls2.num_writes::total             34580                       # Number of write requests responded to by this memory
system.mem_ctrls2.bw_read::ruby.dir_cntrl2    644790989                       # Total read bandwidth from this memory (bytes/s)
system.mem_ctrls2.bw_read::total            644790989                       # Total read bandwidth from this memory (bytes/s)
system.mem_ctrls2.bw_write::ruby.dir_cntrl2    136930078                       # Write bandwidth from this memory (bytes/s)
system.mem_ctrls2.bw_write::total           136930078                       # Write bandwidth from this memory (bytes/s)
system.mem_ctrls2.bw_total::ruby.dir_cntrl2    781721067                       # Total bandwidth to/from this memory (bytes/s)
system.mem_ctrls2.bw_total::total           781721067                       # Total bandwidth to/from this memory (bytes/s)
system.mem_ctrls2.readReqs                     162834                       # Number of read requests accepted
system.mem_ctrls2.avgNetLat                      0.00                       # Average network latency to DRAM controller
system.mem_ctrls2.writeReqs                     34580                       # Number of write requests accepted
system.mem_ctrls2.readBursts                   162834                       # Number of DRAM read bursts, including those serviced by the write queue
system.mem_ctrls2.writeBursts                   34580                       # Number of DRAM write bursts, including those merged in the write queue
system.mem_ctrls2.bytesReadDRAM              10420672                       # Total number of bytes read from DRAM
system.mem_ctrls2.bytesReadWrQ                    704                       # Total number of bytes read from write queue
system.mem_ctrls2.bytesWritten                2212096                       # Total number of bytes written to DRAM
system.mem_ctrls2.bytesReadSys               10421376                       # Total read bytes from the system interface side
system.mem_ctrls2.bytesWrittenSys             2213120                       # Total written bytes from the system interface side
system.mem_ctrls2.servicedByWrQ                    11                       # Number of DRAM read bursts serviced by the write queue
system.mem_ctrls2.mergedWrBursts                    0                       # Number of DRAM write bursts merged with an existing one
system.mem_ctrls2.neitherReadNorWriteReqs            0                       # Number of requests that are neither read nor write
system.mem_ctrls2.perBankRdBursts::0            10354                       # Per bank write bursts
system.mem_ctrls2.perBankRdBursts::1            10224                       # Per bank write bursts
system.mem_ctrls2.perBankRdBursts::2            10329                       # Per bank write bursts
system.mem_ctrls2.perBankRdBursts::3            10057                       # Per bank write bursts
system.mem_ctrls2.perBankRdBursts::4             9898                       # Per bank write bursts
system.mem_ctrls2.perBankRdBursts::5             9587                       # Per bank write bursts
system.mem_ctrls2.perBankRdBursts::6             9569                       # Per bank write bursts
system.mem_ctrls2.perBankRdBursts::7             9766                       # Per bank write bursts
system.mem_ctrls2.perBankRdBursts::8             9704                       # Per bank write bursts
system.mem_ctrls2.perBankRdBursts::9            10105                       # Per bank write bursts
system.mem_ctrls2.perBankRdBursts::10           10841                       # Per bank write bursts
system.mem_ctrls2.perBankRdBursts::11           10572                       # Per bank write bursts
system.mem_ctrls2.perBankRdBursts::12           11130                       # Per bank write bursts
system.mem_ctrls2.perBankRdBursts::13           10618                       # Per bank write bursts
system.mem_ctrls2.perBankRdBursts::14           10084                       # Per bank write bursts
system.mem_ctrls2.perBankRdBursts::15            9985                       # Per bank write bursts
system.mem_ctrls2.perBankWrBursts::0             2194                       # Per bank write bursts
system.mem_ctrls2.perBankWrBursts::1             1989                       # Per bank write bursts
system.mem_ctrls2.perBankWrBursts::2             2223                       # Per bank write bursts
system.mem_ctrls2.perBankWrBursts::3             2261                       # Per bank write bursts
system.mem_ctrls2.perBankWrBursts::4             2435                       # Per bank write bursts
system.mem_ctrls2.perBankWrBursts::5             2141                       # Per bank write bursts
system.mem_ctrls2.perBankWrBursts::6             2029                       # Per bank write bursts
system.mem_ctrls2.perBankWrBursts::7             2239                       # Per bank write bursts
system.mem_ctrls2.perBankWrBursts::8             2301                       # Per bank write bursts
system.mem_ctrls2.perBankWrBursts::9             2037                       # Per bank write bursts
system.mem_ctrls2.perBankWrBursts::10            2183                       # Per bank write bursts
system.mem_ctrls2.perBankWrBursts::11            2087                       # Per bank write bursts
system.mem_ctrls2.perBankWrBursts::12            2236                       # Per bank write bursts
system.mem_ctrls2.perBankWrBursts::13            2064                       # Per bank write bursts
system.mem_ctrls2.perBankWrBursts::14            2095                       # Per bank write bursts
system.mem_ctrls2.perBankWrBursts::15            2050                       # Per bank write bursts
system.mem_ctrls2.numRdRetry                        0                       # Number of times read queue was full causing retry
system.mem_ctrls2.numWrRetry                        0                       # Number of times write queue was full causing retry
system.mem_ctrls2.totGap                  16161514000                       # Total gap between requests
system.mem_ctrls2.readPktSize::0                    0                       # Read request sizes (log2)
system.mem_ctrls2.readPktSize::1                    0                       # Read request sizes (log2)
system.mem_ctrls2.readPktSize::2                    0                       # Read request sizes (log2)
system.mem_ctrls2.readPktSize::3                    0                       # Read request sizes (log2)
system.mem_ctrls2.readPktSize::4                    0                       # Read request sizes (log2)
system.mem_ctrls2.readPktSize::5                    0                       # Read request sizes (log2)
system.mem_ctrls2.readPktSize::6               162834                       # Read request sizes (log2)
system.mem_ctrls2.writePktSize::0                   0                       # Write request sizes (log2)
system.mem_ctrls2.writePktSize::1                   0                       # Write request sizes (log2)
system.mem_ctrls2.writePktSize::2                   0                       # Write request sizes (log2)
system.mem_ctrls2.writePktSize::3                   0                       # Write request sizes (log2)
system.mem_ctrls2.writePktSize::4                   0                       # Write request sizes (log2)
system.mem_ctrls2.writePktSize::5                   0                       # Write request sizes (log2)
system.mem_ctrls2.writePktSize::6               34580                       # Write request sizes (log2)
system.mem_ctrls2.rdQLenPdf::0                  89321                       # What read queue length does an incoming req see
system.mem_ctrls2.rdQLenPdf::1                  43294                       # What read queue length does an incoming req see
system.mem_ctrls2.rdQLenPdf::2                  18558                       # What read queue length does an incoming req see
system.mem_ctrls2.rdQLenPdf::3                   7474                       # What read queue length does an incoming req see
system.mem_ctrls2.rdQLenPdf::4                   2715                       # What read queue length does an incoming req see
system.mem_ctrls2.rdQLenPdf::5                    992                       # What read queue length does an incoming req see
system.mem_ctrls2.rdQLenPdf::6                    317                       # What read queue length does an incoming req see
system.mem_ctrls2.rdQLenPdf::7                    113                       # What read queue length does an incoming req see
system.mem_ctrls2.rdQLenPdf::8                     28                       # What read queue length does an incoming req see
system.mem_ctrls2.rdQLenPdf::9                     10                       # What read queue length does an incoming req see
system.mem_ctrls2.rdQLenPdf::10                     1                       # What read queue length does an incoming req see
system.mem_ctrls2.rdQLenPdf::11                     0                       # What read queue length does an incoming req see
system.mem_ctrls2.rdQLenPdf::12                     0                       # What read queue length does an incoming req see
system.mem_ctrls2.rdQLenPdf::13                     0                       # What read queue length does an incoming req see
system.mem_ctrls2.rdQLenPdf::14                     0                       # What read queue length does an incoming req see
system.mem_ctrls2.rdQLenPdf::15                     0                       # What read queue length does an incoming req see
system.mem_ctrls2.rdQLenPdf::16                     0                       # What read queue length does an incoming req see
system.mem_ctrls2.rdQLenPdf::17                     0                       # What read queue length does an incoming req see
system.mem_ctrls2.rdQLenPdf::18                     0                       # What read queue length does an incoming req see
system.mem_ctrls2.rdQLenPdf::19                     0                       # What read queue length does an incoming req see
system.mem_ctrls2.rdQLenPdf::20                     0                       # What read queue length does an incoming req see
system.mem_ctrls2.rdQLenPdf::21                     0                       # What read queue length does an incoming req see
system.mem_ctrls2.rdQLenPdf::22                     0                       # What read queue length does an incoming req see
system.mem_ctrls2.rdQLenPdf::23                     0                       # What read queue length does an incoming req see
system.mem_ctrls2.rdQLenPdf::24                     0                       # What read queue length does an incoming req see
system.mem_ctrls2.rdQLenPdf::25                     0                       # What read queue length does an incoming req see
system.mem_ctrls2.rdQLenPdf::26                     0                       # What read queue length does an incoming req see
system.mem_ctrls2.rdQLenPdf::27                     0                       # What read queue length does an incoming req see
system.mem_ctrls2.rdQLenPdf::28                     0                       # What read queue length does an incoming req see
system.mem_ctrls2.rdQLenPdf::29                     0                       # What read queue length does an incoming req see
system.mem_ctrls2.rdQLenPdf::30                     0                       # What read queue length does an incoming req see
system.mem_ctrls2.rdQLenPdf::31                     0                       # What read queue length does an incoming req see
system.mem_ctrls2.wrQLenPdf::0                      1                       # What write queue length does an incoming req see
system.mem_ctrls2.wrQLenPdf::1                      1                       # What write queue length does an incoming req see
system.mem_ctrls2.wrQLenPdf::2                      1                       # What write queue length does an incoming req see
system.mem_ctrls2.wrQLenPdf::3                      1                       # What write queue length does an incoming req see
system.mem_ctrls2.wrQLenPdf::4                      1                       # What write queue length does an incoming req see
system.mem_ctrls2.wrQLenPdf::5                      1                       # What write queue length does an incoming req see
system.mem_ctrls2.wrQLenPdf::6                      1                       # What write queue length does an incoming req see
system.mem_ctrls2.wrQLenPdf::7                      1                       # What write queue length does an incoming req see
system.mem_ctrls2.wrQLenPdf::8                      1                       # What write queue length does an incoming req see
system.mem_ctrls2.wrQLenPdf::9                      1                       # What write queue length does an incoming req see
system.mem_ctrls2.wrQLenPdf::10                     1                       # What write queue length does an incoming req see
system.mem_ctrls2.wrQLenPdf::11                     1                       # What write queue length does an incoming req see
system.mem_ctrls2.wrQLenPdf::12                     1                       # What write queue length does an incoming req see
system.mem_ctrls2.wrQLenPdf::13                     1                       # What write queue length does an incoming req see
system.mem_ctrls2.wrQLenPdf::14                     1                       # What write queue length does an incoming req see
[...]
system.ruby.L1Cache_Controller.MR.Load::total        48983                      
system.ruby.L1Cache_Controller.MR.Ifetch |         187      4.46%      4.46% |         198      4.72%      9.17% |         158      3.76%     12.94% |         165      3.93%     16.87% |         981     23.37%     40.24% |           0      0.00%     40.24% |           0      0.00%     40.24% |         208      4.96%     45.20% |         193      4.60%     49.80% |         168      4.00%     53.80% |         161      3.84%     57.64% |         219      5.22%     62.85% |         188      4.48%     67.33% |        1006     23.97%     91.30% |         177      4.22%     95.52% |         188      4.48%    100.00%
system.ruby.L1Cache_Controller.MR.Ifetch::total         4197                      
system.ruby.L1Cache_Controller.MR.Store  |           8      6.56%      6.56% |           9      7.38%     13.93% |           9      7.38%     21.31% |           9      7.38%     28.69% |           9      7.38%     36.07% |           0      0.00%     36.07% |           0      0.00%     36.07% |           9      7.38%     43.44% |          10      8.20%     51.64% |           3      2.46%     54.10% |          13     10.66%     64.75% |           8      6.56%     71.31% |           9      7.38%     78.69% |           9      7.38%     86.07% |           9      7.38%     93.44% |           8      6.56%    100.00%
system.ruby.L1Cache_Controller.MR.Store::total          122                      
system.ruby.L1Cache_Controller.MMR.Load  |         888      0.69%      0.69% |        1111      0.86%      1.55% |        6758      5.23%      6.78% |        9356      7.24%     14.02% |       12192      9.44%     23.47% |           0      0.00%     23.47% |           0      0.00%     23.47% |       15169     11.75%     35.21% |        2884      2.23%     37.44% |        9677      7.49%     44.94% |       21687     16.79%     61.73% |        7492      5.80%     67.53% |        8839      6.84%     74.37% |        9745      7.55%     81.92% |       11120      8.61%     90.53% |       12230      9.47%    100.00%
system.ruby.L1Cache_Controller.MMR.Load::total       129148                      
system.ruby.L1Cache_Controller.MMR.Store |        1494      7.54%      7.54% |        1556      7.85%     15.38% |        1786      9.01%     24.39% |        1571      7.92%     32.32% |        1480      7.46%     39.78% |           0      0.00%     39.78% |           0      0.00%     39.78% |         844      4.26%     44.04% |        1560      7.87%     51.91% |        1403      7.08%     58.98% |        1041      5.25%     64.23% |        1317      6.64%     70.88% |        1498      7.56%     78.43% |        1446      7.29%     85.73% |        1490      7.52%     93.24% |        1340      6.76%    100.00%
system.ruby.L1Cache_Controller.MMR.Store::total        19826                      
system.ruby.L1Cache_Controller.IM.Ack    |      220148      5.28%      5.28% |      230067      5.52%     10.79% |      240626      5.77%     16.56% |      269446      6.46%     23.02% |      285854      6.85%     29.87% |        6161      0.15%     30.02% |        6135      0.15%     30.17% |      181768      4.36%     34.52% |      311525      7.47%     41.99% |      704799     16.90%     58.89% |      283986      6.81%     65.70% |      212209      5.09%     70.78% |      305635      7.33%     78.11% |      282478      6.77%     84.88% |      303627      7.28%     92.16% |      327086      7.84%    100.00%
system.ruby.L1Cache_Controller.IM.Ack::total      4171550                      
system.ruby.L1Cache_Controller.IM.Exclusive_Data |       14694      5.28%      5.28% |       15353      5.51%     10.79% |       16057      5.77%     16.55% |       17980      6.46%     23.01% |       19075      6.85%     29.86% |         525      0.19%     30.05% |         525      0.19%     30.24% |       12130      4.36%     34.59% |       20777      7.46%     42.05% |       47002     16.88%     58.93% |       18942      6.80%     65.73% |       14154      5.08%     70.81% |       20385      7.32%     78.13% |       18843      6.77%     84.90% |       20249      7.27%     92.17% |       21813      7.83%    100.00%
system.ruby.L1Cache_Controller.IM.Exclusive_Data::total       278504                      
system.ruby.L1Cache_Controller.SM.Ack    |           6      5.94%      5.94% |           9      8.91%     14.85% |           6      5.94%     20.79% |           5      4.95%     25.74% |           5      4.95%     30.69% |           0      0.00%     30.69% |           0      0.00%     30.69% |           5      4.95%     35.64% |           7      6.93%     42.57% |           5      4.95%     47.52% |           9      8.91%     56.44% |           7      6.93%     63.37% |          14     13.86%     77.23% |           5      4.95%     82.18% |           6      5.94%     88.12% |          12     11.88%    100.00%
system.ruby.L1Cache_Controller.SM.Ack::total          101                      
system.ruby.L1Cache_Controller.SM.Data   |           1      7.14%      7.14% |           1      7.14%     14.29% |           1      7.14%     21.43% |           1      7.14%     28.57% |           1      7.14%     35.71% |           0      0.00%     35.71% |           0      0.00%     35.71% |           1      7.14%     42.86% |           1      7.14%     50.00% |           1      7.14%     57.14% |           1      7.14%     64.29% |           1      7.14%     71.43% |           1      7.14%     78.57% |           1      7.14%     85.71% |           1      7.14%     92.86% |           1      7.14%    100.00%
system.ruby.L1Cache_Controller.SM.Data::total           14                      
system.ruby.L1Cache_Controller.ISM.Ack   |           8      8.42%      8.42% |           5      5.26%     13.68% |           8      8.42%     22.11% |           9      9.47%     31.58% |           9      9.47%     41.05% |           0      0.00%     41.05% |           0      0.00%     41.05% |           9      9.47%     50.53% |           7      7.37%     57.89% |           9      9.47%     67.37% |           5      5.26%     72.63% |           7      7.37%     80.00% |           0      0.00%     80.00% |           9      9.47%     89.47% |           8      8.42%     97.89% |           2      2.11%    100.00%
system.ruby.L1Cache_Controller.ISM.Ack::total           95                      
system.ruby.L1Cache_Controller.ISM.All_acks_no_sharers |           1      7.14%      7.14% |           1      7.14%     14.29% |           1      7.14%     21.43% |           1      7.14%     28.57% |           1      7.14%     35.71% |           0      0.00%     35.71% |           0      0.00%     35.71% |           1      7.14%     42.86% |           1      7.14%     50.00% |           1      7.14%     57.14% |           1      7.14%     64.29% |           1      7.14%     71.43% |           1      7.14%     78.57% |           1      7.14%     85.71% |           1      7.14%     92.86% |           1      7.14%    100.00%
system.ruby.L1Cache_Controller.ISM.All_acks_no_sharers::total           14                      
system.ruby.L1Cache_Controller.M_W.Ifetch |           0      0.00%      0.00% |           0      0.00%      0.00% |           0      0.00%      0.00% |           0      0.00%      0.00% |           0      0.00%      0.00% |           0      0.00%      0.00% |           0      0.00%      0.00% |           0      0.00%      0.00% |           0      0.00%      0.00% |           0      0.00%      0.00% |           0      0.00%      0.00% |           1    100.00%    100.00% |           0      0.00%    100.00% |           0      0.00%    100.00% |           0      0.00%    100.00% |           0      0.00%    100.00%
system.ruby.L1Cache_Controller.M_W.Ifetch::total            1                      
system.ruby.L1Cache_Controller.M_W.Store |           0      0.00%      0.00% |           0      0.00%      0.00% |           0      0.00%      0.00% |           1     16.67%     16.67% |           0      0.00%     16.67% |           0      0.00%     16.67% |           0      0.00%     16.67% |           3     50.00%     66.67% |           0      0.00%     66.67% |           0      0.00%     66.67% |           1     16.67%     83.33% |           0      0.00%     83.33% |           0      0.00%     83.33% |           0      0.00%     83.33% |           0      0.00%     83.33% |           1     16.67%    100.00%
system.ruby.L1Cache_Controller.M_W.Store::total            6                      
system.ruby.L1Cache_Controller.M_W.Ack   |         671      7.15%      7.15% |         587      6.26%     13.41% |         640      6.82%     20.23% |         589      6.28%     26.51% |         742      7.91%     34.42% |        1345     14.34%     48.76% |        1513     16.13%     64.89% |         488      5.20%     70.09% |         261      2.78%     72.87% |         605      6.45%     79.32% |         381      4.06%     83.38% |         306      3.26%     86.64% |         379      4.04%     90.68% |         305      3.25%     93.93% |         295      3.14%     97.08% |         274      2.92%    100.00%
system.ruby.L1Cache_Controller.M_W.Ack::total         9381                      
system.ruby.L1Cache_Controller.M_W.All_acks_no_sharers |        9482      2.51%      2.51% |        9475      2.51%      5.02% |       42584     11.27%     16.28% |       43015     11.38%     27.67% |       44615     11.81%     39.47% |         364      0.10%     39.57% |         364      0.10%     39.67% |       48030     12.71%     52.38% |        9419      2.49%     54.87% |       20635      5.46%     60.33% |       40013     10.59%     70.92% |       24490      6.48%     77.40% |       20382      5.39%     82.79% |       10676      2.83%     85.62% |       24722      6.54%     92.16% |       29637      7.84%    100.00%
system.ruby.L1Cache_Controller.M_W.All_acks_no_sharers::total       377903                      
system.ruby.L1Cache_Controller.MM_W.Store |           0      0.00%      0.00% |           0      0.00%      0.00% |           0      0.00%      0.00% |           2     50.00%     50.00% |           2     50.00%    100.00% |           0      0.00%    100.00% |           0      0.00%    100.00% |           0      0.00%    100.00% |           0      0.00%    100.00% |           0      0.00%    100.00% |           0      0.00%    100.00% |           0      0.00%    100.00% |           0      0.00%    100.00% |           0      0.00%    100.00% |           0      0.00%    100.00% |           0      0.00%    100.00%
system.ruby.L1Cache_Controller.MM_W.Store::total            4                      
system.ruby.L1Cache_Controller.MM_W.Ack  |         236      4.77%      4.77% |         202      4.08%      8.85% |         203      4.10%     12.95% |         229      4.63%     17.58% |         245      4.95%     22.53% |        1364     27.57%     50.10% |        1390     28.09%     78.19% |         157      3.17%     81.37% |         104      2.10%     83.47% |         205      4.14%     87.61% |         118      2.38%     90.00% |          75      1.52%     91.51% |         114      2.30%     93.82% |         141      2.85%     96.67% |          82      1.66%     98.32% |          83      1.68%    100.00%
system.ruby.L1Cache_Controller.MM_W.Ack::total         4948                      
system.ruby.L1Cache_Controller.MM_W.All_acks_no_sharers |       14694      5.28%      5.28% |       15353      5.51%     10.79% |       16057      5.77%     16.55% |       17981      6.46%     23.01% |       19075      6.85%     29.86% |         525      0.19%     30.05% |         525      0.19%     30.24% |       12133      4.36%     34.59% |       20777      7.46%     42.05% |       47002     16.88%     58.93% |       18943      6.80%     65.73% |       14154      5.08%     70.81% |       20385      7.32%     78.13% |       18843      6.77%     84.90% |       20249      7.27%     92.17% |       21814      7.83%    100.00%
system.ruby.L1Cache_Controller.MM_W.All_acks_no_sharers::total       278510                      
system.ruby.L1Cache_Controller.IS.Ack    |      141490      2.50%      2.50% |      141469      2.50%      5.00% |      638050     11.28%     16.28% |      644581     11.39%     27.67% |      668411     11.81%     39.49% |        3751      0.07%     39.55% |        3583      0.06%     39.62% |      719934     12.73%     52.34% |      140960      2.49%     54.83% |      308850      5.46%     60.29% |      599765     10.60%     70.89% |      366975      6.49%     77.38% |      305288      5.40%     82.78% |      159766      2.82%     85.60% |      370472      6.55%     92.15% |      444233      7.85%    100.00%
system.ruby.L1Cache_Controller.IS.Ack::total      5657578                      
system.ruby.L1Cache_Controller.IS.Shared_Data |           1      7.14%      7.14% |           1      7.14%     14.29% |           1      7.14%     21.43% |           1      7.14%     28.57% |           1      7.14%     35.71% |           0      0.00%     35.71% |           0      0.00%     35.71% |           1      7.14%     42.86% |           1      7.14%     50.00% |           1      7.14%     57.14% |           1      7.14%     64.29% |           1      7.14%     71.43% |           1      7.14%     78.57% |           1      7.14%     85.71% |           1      7.14%     92.86% |           1      7.14%    100.00%
system.ruby.L1Cache_Controller.IS.Shared_Data::total           14                      
system.ruby.L1Cache_Controller.IS.Exclusive_Data |        9482      2.51%      2.51% |        9475      2.51%      5.02% |       42584     11.27%     16.28% |       43016     11.38%     27.67% |       44615     11.81%     39.47% |         364      0.10%     39.57% |         364      0.10%     39.67% |       48033     12.71%     52.38% |        9419      2.49%     54.87% |       20635      5.46%     60.33% |       40014     10.59%     70.92% |       24490      6.48%     77.40% |       20382      5.39%     82.79% |       10676      2.83%     85.62% |       24722      6.54%     92.16% |       29638      7.84%    100.00%
system.ruby.L1Cache_Controller.IS.Exclusive_Data::total       377909                      
system.ruby.L1Cache_Controller.SS.Ack    |           8      8.70%      8.70% |           8      8.70%     17.39% |           9      9.78%     27.17% |           8      8.70%     35.87% |          11     11.96%     47.83% |           0      0.00%     47.83% |           0      0.00%     47.83% |          11     11.96%     59.78% |           3      3.26%     63.04% |           9      9.78%     72.83% |           3      3.26%     76.09% |           8      8.70%     84.78% |           2      2.17%     86.96% |           8      8.70%     95.65% |           2      2.17%     97.83% |           2      2.17%    100.00%
system.ruby.L1Cache_Controller.SS.Ack::total           92                      
system.ruby.L1Cache_Controller.SS.All_acks |           1      7.14%      7.14% |           1      7.14%     14.29% |           1      7.14%     21.43% |           1      7.14%     28.57% |           1      7.14%     35.71% |           0      0.00%     35.71% |           0      0.00%     35.71% |           1      7.14%     42.86% |           1      7.14%     50.00% |           1      7.14%     57.14% |           1      7.14%     64.29% |           1      7.14%     71.43% |           1      7.14%     78.57% |           1      7.14%     85.71% |           1      7.14%     92.86% |           1      7.14%    100.00%
system.ruby.L1Cache_Controller.SS.All_acks::total           14                      
system.ruby.L1Cache_Controller.MI.Load   |           1      1.67%      1.67% |           0      0.00%      1.67% |           7     11.67%     13.33% |           5      8.33%     21.67% |           5      8.33%     30.00% |           0      0.00%     30.00% |           0      0.00%     30.00% |           8     13.33%     43.33% |           1      1.67%     45.00% |           5      8.33%     53.33% |           6     10.00%     63.33% |           5      8.33%     71.67% |           3      5.00%     76.67% |           0      0.00%     76.67% |           3      5.00%     81.67% |          11     18.33%    100.00%
system.ruby.L1Cache_Controller.MI.Load::total           60                      
system.ruby.L1Cache_Controller.MI.Ifetch |           0      0.00%      0.00% |           0      0.00%      0.00% |           0      0.00%      0.00% |           0      0.00%      0.00% |           0      0.00%      0.00% |           0      0.00%      0.00% |           0      0.00%      0.00% |           2     66.67%     66.67% |           0      0.00%     66.67% |           0      0.00%     66.67% |           0      0.00%     66.67% |           1     33.33%    100.00% |           0      0.00%    100.00% |           0      0.00%    100.00% |           0      0.00%    100.00% |           0      0.00%    100.00%
system.ruby.L1Cache_Controller.MI.Ifetch::total            3                      
system.ruby.L1Cache_Controller.MI.Store  |           0      0.00%      0.00% |           0      0.00%      0.00% |           0      0.00%      0.00% |           2     25.00%     25.00% |           1     12.50%     37.50% |           0      0.00%     37.50% |           0      0.00%     37.50% |           1     12.50%     50.00% |           1     12.50%     62.50% |           0      0.00%     62.50% |           0      0.00%     62.50% |           0      0.00%     62.50% |           0      0.00%     62.50% |           1     12.50%     75.00% |           0      0.00%     75.00% |           2     25.00%    100.00%
system.ruby.L1Cache_Controller.MI.Store::total            8                      
system.ruby.L1Cache_Controller.MI.Writeback_Ack |         174      0.08%      0.08% |         187      0.09%      0.17% |       24331     11.78%     11.95% |       26682     12.92%     24.87% |       29383     14.23%     39.10% |           0      0.00%     39.10% |           0      0.00%     39.10% |       25964     12.57%     51.67% |         742      0.36%     52.03% |       33338     16.14%     68.17% |       24756     11.99%     80.15% |        5272      2.55%     82.71% |        6814      3.30%     86.01% |         877      0.42%     86.43% |       10840      5.25%     91.68% |       17189      8.32%    100.00%
system.ruby.L1Cache_Controller.MI.Writeback_Ack::total       206549                      
system.ruby.L1Cache_Controller.MT.Complete_L2_to_L1 |        3596      6.75%      6.75% |        3810      7.15%     13.89% |        4251      7.98%     21.87% |        3629      6.81%     28.68% |        4457      8.36%     37.04% |           0      0.00%     37.04% |           0      0.00%     37.04% |        3660      6.87%     43.91% |        3696      6.93%     50.84% |        3691      6.92%     57.77% |        3486      6.54%     64.31% |        3602      6.76%     71.06% |        3698      6.94%     78.00% |        4425      8.30%     86.30% |        3683      6.91%     93.21% |        3618      6.79%    100.00%
system.ruby.L1Cache_Controller.MT.Complete_L2_to_L1::total        53302                      
system.ruby.L1Cache_Controller.MMT.Complete_L2_to_L1 |        2382      1.60%      1.60% |        2667      1.79%      3.39% |        8544      5.74%      9.12% |       10927      7.33%     16.46% |       13672      9.18%     25.64% |           0      0.00%     25.64% |           0      0.00%     25.64% |       16013     10.75%     36.39% |        4444      2.98%     39.37% |       11080      7.44%     46.81% |       22728     15.26%     62.06% |        8809      5.91%     67.98% |       10337      6.94%     74.91% |       11191      7.51%     82.43% |       12610      8.46%     90.89% |       13570      9.11%    100.00%
system.ruby.L1Cache_Controller.MMT.Complete_L2_to_L1::total       148974                      

---------- End Simulation Statistics   ----------
