
---------- Begin Simulation Statistics ----------
sim_seconds                                  0.021168                       # Number of seconds simulated
sim_ticks                                 21167591500                       # Number of ticks simulated
final_tick                                21167591500                       # Number of ticks from beginning of simulation (restored from checkpoints and never reset)
sim_freq                                 1000000000000                       # Frequency of simulated ticks
host_inst_rate                                  87534                       # Simulator instruction rate (inst/s)
host_op_rate                                   150885                       # Simulator op (including micro ops) rate (op/s)
host_tick_rate                               25062039                       # Simulator tick rate (ticks/s)
host_mem_usage                                1156368                       # Number of bytes of host memory used
host_seconds                                   844.61                       # Real time elapsed on the host
sim_insts                                    73931912                       # Number of instructions simulated
sim_ops                                     127438506                       # Number of ops (including micro ops) simulated
system.voltage_domain.voltage                       1                       # Voltage in Volts
system.clk_domain.clock                          1000                       # Clock period in ticks
system.mem_ctrls0.pwrStateResidencyTicks::UNDEFINED  21167591500                       # Cumulative time (in ticks) in various power states
system.mem_ctrls0.bytes_read::ruby.dir_cntrl0      3484544                       # Number of bytes read from this memory
system.mem_ctrls0.bytes_read::total           3484544                       # Number of bytes read from this memory
system.mem_ctrls0.num_reads::ruby.dir_cntrl0        54446                       # Number of read requests responded to by this memory
system.mem_ctrls0.num_reads::total              54446                       # Number of read requests responded to by this memory
system.mem_ctrls0.bw_read::ruby.dir_cntrl0    164616933                       # Total read bandwidth from this memory (bytes/s)
system.mem_ctrls0.bw_read::total            164616933                       # Total read bandwidth from this memory (bytes/s)
system.mem_ctrls0.bw_total::ruby.dir_cntrl0    164616933                       # Total bandwidth to/from this memory (bytes/s)
system.mem_ctrls0.bw_total::total           164616933                       # Total bandwidth to/from this memory (bytes/s)
system.mem_ctrls0.readReqs                      54446                       # Number of read requests accepted
system.mem_ctrls0.avgNetLat                      0.00                       # Average network latency to DRAM controller
system.mem_ctrls0.writeReqs                         0                       # Number of write requests accepted
system.mem_ctrls0.readBursts                    54446                       # Number of DRAM read bursts, including those serviced by the write queue
system.mem_ctrls0.writeBursts                       0                       # Number of DRAM write bursts, including those merged in the write queue
system.mem_ctrls0.bytesReadDRAM               3484544                       # Total number of bytes read from DRAM
system.mem_ctrls0.bytesReadWrQ                      0                       # Total number of bytes read from write queue
system.mem_ctrls0.bytesWritten                      0                       # Total number of bytes written to DRAM
system.mem_ctrls0.bytesReadSys                3484544                       # Total read bytes from the system interface side
system.mem_ctrls0.bytesWrittenSys                   0                       # Total written bytes from the system interface side
system.mem_ctrls0.servicedByWrQ                     0                       # Number of DRAM read bursts serviced by the write queue
system.mem_ctrls0.mergedWrBursts                    0                       # Number of DRAM write bursts merged with an existing one
system.mem_ctrls0.neitherReadNorWriteReqs            0                       # Number of requests that are neither read nor write
system.mem_ctrls0.perBankRdBursts::0             4037                       # Per bank write bursts
system.mem_ctrls0.perBankRdBursts::1             4033                       # Per bank write bursts
system.mem_ctrls0.perBankRdBursts::2             3615                       # Per bank write bursts
system.mem_ctrls0.perBankRdBursts::3             3517                       # Per bank write bursts
system.mem_ctrls0.perBankRdBursts::4             3283                       # Per bank write bursts
system.mem_ctrls0.perBankRdBursts::5             3166                       # Per bank write bursts
system.mem_ctrls0.perBankRdBursts::6             3174                       # Per bank write bursts
system.mem_ctrls0.perBankRdBursts::7             3096                       # Per bank write bursts
system.mem_ctrls0.perBankRdBursts::8             2641                       # Per bank write bursts
system.mem_ctrls0.perBankRdBursts::9             2556                       # Per bank write bursts
system.mem_ctrls0.perBankRdBursts::10            2835                       # Per bank write bursts
system.mem_ctrls0.perBankRdBursts::11            3240                       # Per bank write bursts
system.mem_ctrls0.perBankRdBursts::12            3653                       # Per bank write bursts
system.mem_ctrls0.perBankRdBursts::13            3766                       # Per bank write bursts
system.mem_ctrls0.perBankRdBursts::14            3866                       # Per bank write bursts
system.mem_ctrls0.perBankRdBursts::15            3968                       # Per bank write bursts
system.mem_ctrls0.perBankWrBursts::0                0                       # Per bank write bursts
system.mem_ctrls0.perBankWrBursts::1                0                       # Per bank write bursts
system.mem_ctrls0.perBankWrBursts::2                0                       # Per bank write bursts
system.mem_ctrls0.perBankWrBursts::3                0                       # Per bank write bursts
system.mem_ctrls0.perBankWrBursts::4                0                       # Per bank write bursts
system.mem_ctrls0.perBankWrBursts::5                0                       # Per bank write bursts
system.mem_ctrls0.perBankWrBursts::6                0                       # Per bank write bursts
system.mem_ctrls0.perBankWrBursts::7                0                       # Per bank write bursts
system.mem_ctrls0.perBankWrBursts::8                0                       # Per bank write bursts
system.mem_ctrls0.perBankWrBursts::9                0                       # Per bank write bursts
system.mem_ctrls0.perBankWrBursts::10               0                       # Per bank write bursts
system.mem_ctrls0.perBankWrBursts::11               0                       # Per bank write bursts
system.mem_ctrls0.perBankWrBursts::12               0                       # Per bank write bursts
system.mem_ctrls0.perBankWrBursts::13               0                       # Per bank write bursts
system.mem_ctrls0.perBankWrBursts::14               0                       # Per bank write bursts
system.mem_ctrls0.perBankWrBursts::15               0                       # Per bank write bursts
system.mem_ctrls0.numRdRetry                        0                       # Number of times read queue was full causing retry
system.mem_ctrls0.numWrRetry                        0                       # Number of times write queue was full causing retry
system.mem_ctrls0.totGap                  21166597500                       # Total gap between requests
system.mem_ctrls0.readPktSize::0                    0                       # Read request sizes (log2)
system.mem_ctrls0.readPktSize::1                    0                       # Read request sizes (log2)
system.mem_ctrls0.readPktSize::2                    0                       # Read request sizes (log2)
system.mem_ctrls0.readPktSize::3                    0                       # Read request sizes (log2)
system.mem_ctrls0.readPktSize::4                    0                       # Read request sizes (log2)
system.mem_ctrls0.readPktSize::5                    0                       # Read request sizes (log2)
system.mem_ctrls0.readPktSize::6                54446                       # Read request sizes (log2)
system.mem_ctrls0.writePktSize::0                   0                       # Write request sizes (log2)
system.mem_ctrls0.writePktSize::1                   0                       # Write request sizes (log2)
system.mem_ctrls0.writePktSize::2                   0                       # Write request sizes (log2)
system.mem_ctrls0.writePktSize::3                   0                       # Write request sizes (log2)
system.mem_ctrls0.writePktSize::4                   0                       # Write request sizes (log2)
system.mem_ctrls0.writePktSize::5                   0                       # Write request sizes (log2)
system.mem_ctrls0.writePktSize::6                   0                       # Write request sizes (log2)
system.mem_ctrls0.rdQLenPdf::0                  38833                       # What read queue length does an incoming req see
system.mem_ctrls0.rdQLenPdf::1                  10382                       # What read queue length does an incoming req see
system.mem_ctrls0.rdQLenPdf::2                   3419                       # What read queue length does an incoming req see
system.mem_ctrls0.rdQLenPdf::3                   1190                       # What read queue length does an incoming req see
system.mem_ctrls0.rdQLenPdf::4                    392                       # What read queue length does an incoming req see
system.mem_ctrls0.rdQLenPdf::5                    147                       # What read queue length does an incoming req see
system.mem_ctrls0.rdQLenPdf::6                     49                       # What read queue length does an incoming req see
system.mem_ctrls0.rdQLenPdf::7                     18                       # What read queue length does an incoming req see
system.mem_ctrls0.rdQLenPdf::8                      7                       # What read queue length does an incoming req see
system.mem_ctrls0.rdQLenPdf::9                      6                       # What read queue length does an incoming req see
system.mem_ctrls0.rdQLenPdf::10                     3                       # What read queue length does an incoming req see
system.mem_ctrls0.rdQLenPdf::11                     0                       # What read queue length does an incoming req see
system.mem_ctrls0.rdQLenPdf::12                     0                       # What read queue length does an incoming req see
system.mem_ctrls0.rdQLenPdf::13                     0                       # What read queue length does an incoming req see
system.mem_ctrls0.rdQLenPdf::14                     0                       # What read queue length does an incoming req see
system.mem_ctrls0.rdQLenPdf::15                     0                       # What read queue length does an incoming req see
system.mem_ctrls0.rdQLenPdf::16                     0                       # What read queue length does an incoming req see
system.mem_ctrls0.rdQLenPdf::17                     0                       # What read queue length does an incoming req see
system.mem_ctrls0.rdQLenPdf::18                     0                       # What read queue length does an incoming req see
system.mem_ctrls0.rdQLenPdf::19                     0                       # What read queue length does an incoming req see
system.mem_ctrls0.rdQLenPdf::20                     0                       # What read queue length does an incoming req see
system.mem_ctrls0.rdQLenPdf::21                     0                       # What read queue length does an incoming req see
system.mem_ctrls0.rdQLenPdf::22                     0                       # What read queue length does an incoming req see
system.mem_ctrls0.rdQLenPdf::23                     0                       # What read queue length does an incoming req see
system.mem_ctrls0.rdQLenPdf::24                     0                       # What read queue length does an incoming req see
system.mem_ctrls0.rdQLenPdf::25                     0                       # What read queue length does an incoming req see
system.mem_ctrls0.rdQLenPdf::26                     0                       # What read queue length does an incoming req see
system.mem_ctrls0.rdQLenPdf::27                     0                       # What read queue length does an incoming req see
system.mem_ctrls0.rdQLenPdf::28                     0                       # What read queue length does an incoming req see
system.mem_ctrls0.rdQLenPdf::29                     0                       # What read queue length does an incoming req see
system.mem_ctrls0.rdQLenPdf::30                     0                       # What read queue length does an incoming req see
system.mem_ctrls0.rdQLenPdf::31                     0                       # What read queue length does an incoming req see
system.mem_ctrls0.wrQLenPdf::0                      0                       # What write queue length does an incoming req see
system.mem_ctrls0.wrQLenPdf::1                      0                       # What write queue length does an incoming req see
system.mem_ctrls0.wrQLenPdf::2                      0                       # What write queue length does an incoming req see
system.mem_ctrls0.wrQLenPdf::3                      0                       # What write queue length does an incoming req see
system.mem_ctrls0.wrQLenPdf::4                      0                       # What write queue length does an incoming req see
system.mem_ctrls0.wrQLenPdf::5                      0                       # What write queue length does an incoming req see
system.mem_ctrls0.wrQLenPdf::6                      0                       # What write queue length does an incoming req see
system.mem_ctrls0.wrQLenPdf::7                      0                       # What write queue length does an incoming req see
system.mem_ctrls0.wrQLenPdf::8                      0                       # What write queue length does an incoming req see
system.mem_ctrls0.wrQLenPdf::9                      0                       # What write queue length does an incoming req see
system.mem_ctrls0.wrQLenPdf::10                     0                       # What write queue length does an incoming req see
system.mem_ctrls0.wrQLenPdf::11                     0                       # What write queue length does an incoming req see
system.mem_ctrls0.wrQLenPdf::12                     0                       # What write queue length does an incoming req see
system.mem_ctrls0.wrQLenPdf::13                     0                       # What write queue length does an incoming req see
system.mem_ctrls0.wrQLenPdf::14                     0                       # What write queue length does an incoming req see
system.mem_ctrls0.wrQLenPdf::15                     0                       # What write queue length does an incoming req see
system.mem_ctrls0.wrQLenPdf::16                     0                       # What write queue length does an incoming req see
system.mem_ctrls0.wrQLenPdf::17                     0                       # What write queue length does an incoming req see
system.mem_ctrls0.wrQLenPdf::18                     0                       # What write queue length does an incoming req see
system.mem_ctrls0.wrQLenPdf::19                     0                       # What write queue length does an incoming req see
system.mem_ctrls0.wrQLenPdf::20                     0                       # What write queue length does an incoming req see
system.mem_ctrls0.wrQLenPdf::21                     0                       # What write queue length does an incoming req see
system.mem_ctrls0.wrQLenPdf::22                     0                       # What write queue length does an incoming req see
system.mem_ctrls0.wrQLenPdf::23                     0                       # What write queue length does an incoming req see
system.mem_ctrls0.wrQLenPdf::24                     0                       # What write queue length does an incoming req see
system.mem_ctrls0.wrQLenPdf::25                     0                       # What write queue length does an incoming req see
system.mem_ctrls0.wrQLenPdf::26                     0                       # What write queue length does an incoming req see
system.mem_ctrls0.wrQLenPdf::27                     0                       # What write queue length does an incoming req see
system.mem_ctrls0.wrQLenPdf::28                     0                       # What write queue length does an incoming req see
system.mem_ctrls0.wrQLenPdf::29                     0                       # What write queue length does an incoming req see
system.mem_ctrls0.wrQLenPdf::30                     0                       # What write queue length does an incoming req see
system.mem_ctrls0.wrQLenPdf::31                     0                       # What write queue length does an incoming req see
system.mem_ctrls0.wrQLenPdf::32                     0                       # What write queue length does an incoming req see
system.mem_ctrls0.wrQLenPdf::33                     0                       # What write queue length does an incoming req see
system.mem_ctrls0.wrQLenPdf::34                     0                       # What write queue length does an incoming req see
system.mem_ctrls0.wrQLenPdf::35                     0                       # What write queue length does an incoming req see
system.mem_ctrls0.wrQLenPdf::36                     0                       # What write queue length does an incoming req see
system.mem_ctrls0.wrQLenPdf::37                     0                       # What write queue length does an incoming req see
system.mem_ctrls0.wrQLenPdf::38                     0                       # What write queue length does an incoming req see
system.mem_ctrls0.wrQLenPdf::39                     0                       # What write queue length does an incoming req see
system.mem_ctrls0.wrQLenPdf::40                     0                       # What write queue length does an incoming req see
system.mem_ctrls0.wrQLenPdf::41                     0                       # What write queue length does an incoming req see
system.mem_ctrls0.wrQLenPdf::42                     0                       # What write queue length does an incoming req see
system.mem_ctrls0.wrQLenPdf::43                     0                       # What write queue length does an incoming req see
system.mem_ctrls0.wrQLenPdf::44                     0                       # What write queue length does an incoming req see
system.mem_ctrls0.wrQLenPdf::45                     0                       # What write queue length does an incoming req see
system.mem_ctrls0.wrQLenPdf::46                     0                       # What write queue length does an incoming req see
system.mem_ctrls0.wrQLenPdf::47                     0                       # What write queue length does an incoming req see
system.mem_ctrls0.wrQLenPdf::48                     0                       # What write queue length does an incoming req see
system.mem_ctrls0.wrQLenPdf::49                     0                       # What write queue length does an incoming req see
system.mem_ctrls0.wrQLenPdf::50                     0                       # What write queue length does an incoming req see
system.mem_ctrls0.wrQLenPdf::51                     0                       # What write queue length does an incoming req see
system.mem_ctrls0.wrQLenPdf::52                     0                       # What write queue length does an incoming req see
system.mem_ctrls0.wrQLenPdf::53                     0                       # What write queue length does an incoming req see
system.mem_ctrls0.wrQLenPdf::54                     0                       # What write queue length does an incoming req see
system.mem_ctrls0.wrQLenPdf::55                     0                       # What write queue length does an incoming req see
system.mem_ctrls0.wrQLenPdf::56                     0                       # What write queue length does an incoming req see
system.mem_ctrls0.wrQLenPdf::57                     0                       # What write queue length does an incoming req see
system.mem_ctrls0.wrQLenPdf::58                     0                       # What write queue length does an incoming req see
system.mem_ctrls0.wrQLenPdf::59                     0                       # What write queue length does an incoming req see
system.mem_ctrls0.wrQLenPdf::60                     0                       # What write queue length does an incoming req see
system.mem_ctrls0.wrQLenPdf::61                     0                       # What write queue length does an incoming req see
system.mem_ctrls0.wrQLenPdf::62                     0                       # What write queue length does an incoming req see
system.mem_ctrls0.wrQLenPdf::63                     0                       # What write queue length does an incoming req see
system.mem_ctrls0.bytesPerActivate::samples        34952                       # Bytes accessed per row activation
system.mem_ctrls0.bytesPerActivate::mean    99.673152                       # Bytes accessed per row activation
system.mem_ctrls0.bytesPerActivate::gmean    78.395142                       # Bytes accessed per row activation
system.mem_ctrls0.bytesPerActivate::stdev   110.286252                       # Bytes accessed per row activation
system.mem_ctrls0.bytesPerActivate::0-127        29739     85.09%     85.09% # Bytes accessed per row activation
system.mem_ctrls0.bytesPerActivate::128-255         2651      7.58%     92.67% # Bytes accessed per row activation
system.mem_ctrls0.bytesPerActivate::256-383          440      1.26%     93.93% # Bytes accessed per row activation
system.mem_ctrls0.bytesPerActivate::384-511          239      0.68%     94.61% # Bytes accessed per row activation
system.mem_ctrls0.bytesPerActivate::512-639         1804      5.16%     99.77% # Bytes accessed per row activation
system.mem_ctrls0.bytesPerActivate::640-767           61      0.17%     99.95% # Bytes accessed per row activation
system.mem_ctrls0.bytesPerActivate::768-895           10      0.03%     99.98% # Bytes accessed per row activation
system.mem_ctrls0.bytesPerActivate::896-1023            1      0.00%     99.98% # Bytes accessed per row activation
system.mem_ctrls0.bytesPerActivate::1024-1151            7      0.02%    100.00% # Bytes accessed per row activation
system.mem_ctrls0.bytesPerActivate::total        34952                       # Bytes accessed per row activation
system.mem_ctrls0.totQLat                  1630066500                       # Total ticks spent queuing
system.mem_ctrls0.totMemAccLat             2650929000                       # Total ticks spent from burst creation until serviced by the DRAM
system.mem_ctrls0.totBusLat                 272230000                       # Total ticks spent in databus transfers
system.mem_ctrls0.avgQLat                    29939.14                       # Average queueing delay per DRAM burst
system.mem_ctrls0.avgBusLat                   5000.00                       # Average bus latency per DRAM burst
system.mem_ctrls0.avgMemAccLat               48689.14                       # Average memory access latency per DRAM burst
system.mem_ctrls0.avgRdBW                      164.62                       # Average DRAM read bandwidth in MiByte/s
system.mem_ctrls0.avgWrBW                        0.00                       # Average achieved write bandwidth in MiByte/s
system.mem_ctrls0.avgRdBWSys                   164.62                       # Average system read bandwidth in MiByte/s
system.mem_ctrls0.avgWrBWSys                     0.00                       # Average system write bandwidth in MiByte/s
system.mem_ctrls0.peakBW                     12800.00                       # Theoretical peak bandwidth in MiByte/s
system.mem_ctrls0.busUtil                        1.29                       # Data bus utilization in percentage
system.mem_ctrls0.busUtilRead                    1.29                       # Data bus utilization in percentage for reads
system.mem_ctrls0.busUtilWrite                   0.00                       # Data bus utilization in percentage for writes
system.mem_ctrls0.avgRdQLen                      1.16                       # Average read queue length when enqueuing
system.mem_ctrls0.avgWrQLen                      0.00                       # Average write queue length when enqueuing
system.mem_ctrls0.readRowHits                   19487                       # Number of row buffer hits during reads
system.mem_ctrls0.writeRowHits                      0                       # Number of row buffer hits during writes
system.mem_ctrls0.readRowHitRate                35.79                       # Row buffer hit rate for reads
system.mem_ctrls0.writeRowHitRate                 nan                       # Row buffer hit rate for writes
system.mem_ctrls0.avgGap                    388763.13                       # Average gap between requests
system.mem_ctrls0.pageHitRate                   35.79                       # Row buffer hit rate, read and write combined
system.mem_ctrls0_0.actEnergy               114982560                       # Energy for activate commands per rank (pJ)
system.mem_ctrls0_0.preEnergy                61103295                       # Energy for precharge commands per rank (pJ)
system.mem_ctrls0_0.readEnergy              199355940                       # Energy for read commands per rank (pJ)
system.mem_ctrls0_0.writeEnergy                     0                       # Energy for write commands per rank (pJ)
system.mem_ctrls0_0.refreshEnergy        1170889200.000000                       # Energy for refresh commands per rank (pJ)
system.mem_ctrls0_0.actBackEnergy           648149850                       # Energy for active background per rank (pJ)
system.mem_ctrls0_0.preBackEnergy            34236960                       # Energy for precharge background per rank (pJ)
system.mem_ctrls0_0.actPowerDownEnergy     5720792460                       # Energy for active power-down per rank (pJ)
system.mem_ctrls0_0.prePowerDownEnergy      253488000                       # Energy for precharge power-down per rank (pJ)
system.mem_ctrls0_0.selfRefreshEnergy      1557707280                       # Energy for self refresh per rank (pJ)
system.mem_ctrls0_0.totalEnergy            9760705545                       # Total energy per rank (pJ)
system.mem_ctrls0_0.averagePower           461.115526                       # Core power per rank (mW)
system.mem_ctrls0_0.totalIdleTime         19653390000                       # Total Idle time Per DRAM Rank
system.mem_ctrls0_0.memoryStateTime::IDLE     15637250                       # Time in different power states
system.mem_ctrls0_0.memoryStateTime::REF    495402000                       # Time in different power states
system.mem_ctrls0_0.memoryStateTime::SREF   6451331750                       # Time in different power states
system.mem_ctrls0_0.memoryStateTime::PRE_PDN    659901000                       # Time in different power states
system.mem_ctrls0_0.memoryStateTime::ACT    999451750                       # Time in different power states
system.mem_ctrls0_0.memoryStateTime::ACT_PDN  12545867750                       # Time in different power states
system.mem_ctrls0_1.actEnergy               134624700                       # Energy for activate commands per rank (pJ)
system.mem_ctrls0_1.preEnergy                71539545                       # Energy for precharge commands per rank (pJ)
system.mem_ctrls0_1.readEnergy              189388500                       # Energy for read commands per rank (pJ)
system.mem_ctrls0_1.writeEnergy                     0                       # Energy for write commands per rank (pJ)
system.mem_ctrls0_1.refreshEnergy        931179600.000000                       # Energy for refresh commands per rank (pJ)
system.mem_ctrls0_1.actBackEnergy           594922110                       # Energy for active background per rank (pJ)
system.mem_ctrls0_1.preBackEnergy            23398560                       # Energy for precharge background per rank (pJ)
system.mem_ctrls0_1.actPowerDownEnergy     4429074420                       # Energy for active power-down per rank (pJ)
system.mem_ctrls0_1.prePowerDownEnergy      213664320                       # Energy for precharge power-down per rank (pJ)
system.mem_ctrls0_1.selfRefreshEnergy      2300550720                       # Energy for self refresh per rank (pJ)
system.mem_ctrls0_1.totalEnergy            8888342475                       # Total energy per rank (pJ)
system.mem_ctrls0_1.averagePower           419.903325                       # Core power per rank (mW)
system.mem_ctrls0_1.totalIdleTime         19801598000                       # Total Idle time Per DRAM Rank
system.mem_ctrls0_1.memoryStateTime::IDLE     14666250                       # Time in different power states
system.mem_ctrls0_1.memoryStateTime::REF    394038000                       # Time in different power states
system.mem_ctrls0_1.memoryStateTime::SREF   9532702500                       # Time in different power states
system.mem_ctrls0_1.memoryStateTime::PRE_PDN    556338250                       # Time in different power states
system.mem_ctrls0_1.memoryStateTime::ACT    956414500                       # Time in different power states
system.mem_ctrls0_1.memoryStateTime::ACT_PDN   9713432000                       # Time in different power states
system.mem_ctrls1.pwrStateResidencyTicks::UNDEFINED  21167591500                       # Cumulative time (in ticks) in various power states
system.mem_ctrls1.bytes_read::ruby.dir_cntrl1      3463936                       # Number of bytes read from this memory
system.mem_ctrls1.bytes_read::total           3463936                       # Number of bytes read from this memory
system.mem_ctrls1.num_reads::ruby.dir_cntrl1        54124                       # Number of read requests responded to by this memory
system.mem_ctrls1.num_reads::total              54124                       # Number of read requests responded to by this memory
system.mem_ctrls1.bw_read::ruby.dir_cntrl1    163643370                       # Total read bandwidth from this memory (bytes/s)
system.mem_ctrls1.bw_read::total            163643370                       # Total read bandwidth from this memory (bytes/s)
system.mem_ctrls1.bw_total::ruby.dir_cntrl1    163643370                       # Total bandwidth to/from this memory (bytes/s)
system.mem_ctrls1.bw_total::total           163643370                       # Total bandwidth to/from this memory (bytes/s)
system.mem_ctrls1.readReqs                      54124                       # Number of read requests accepted
system.mem_ctrls1.avgNetLat                      0.00                       # Average network latency to DRAM controller
system.mem_ctrls1.writeReqs                         0                       # Number of write requests accepted
system.mem_ctrls1.readBursts                    54124                       # Number of DRAM read bursts, including those serviced by the write queue
system.mem_ctrls1.writeBursts                       0                       # Number of DRAM write bursts, including those merged in the write queue
system.mem_ctrls1.bytesReadDRAM               3463936                       # Total number of bytes read from DRAM
system.mem_ctrls1.bytesReadWrQ                      0                       # Total number of bytes read from write queue
system.mem_ctrls1.bytesWritten                      0                       # Total number of bytes written to DRAM
system.mem_ctrls1.bytesReadSys                3463936                       # Total read bytes from the system interface side
system.mem_ctrls1.bytesWrittenSys                   0                       # Total written bytes from the system interface side
system.mem_ctrls1.servicedByWrQ                     0                       # Number of DRAM read bursts serviced by the write queue
system.mem_ctrls1.mergedWrBursts                    0                       # Number of DRAM write bursts merged with an existing one
system.mem_ctrls1.neitherReadNorWriteReqs            0                       # Number of requests that are neither read nor write
system.mem_ctrls1.perBankRdBursts::0             3974                       # Per bank write bursts
system.mem_ctrls1.perBankRdBursts::1             3986                       # Per bank write bursts
system.mem_ctrls1.perBankRdBursts::2             3573                       # Per bank write bursts
system.mem_ctrls1.perBankRdBursts::3             3504                       # Per bank write bursts
system.mem_ctrls1.perBankRdBursts::4             3264                       # Per bank write bursts
system.mem_ctrls1.perBankRdBursts::5             3137                       # Per bank write bursts
system.mem_ctrls1.perBankRdBursts::6             3131                       # Per bank write bursts
system.mem_ctrls1.perBankRdBursts::7             3094                       # Per bank write bursts
system.mem_ctrls1.perBankRdBursts::8             2641                       # Per bank write bursts
system.mem_ctrls1.perBankRdBursts::9             2529                       # Per bank write bursts
system.mem_ctrls1.perBankRdBursts::10            2811                       # Per bank write bursts
system.mem_ctrls1.perBankRdBursts::11            3221                       # Per bank write bursts
system.mem_ctrls1.perBankRdBursts::12            3650                       # Per bank write bursts
system.mem_ctrls1.perBankRdBursts::13            3799                       # Per bank write bursts
system.mem_ctrls1.perBankRdBursts::14            3854                       # Per bank write bursts
system.mem_ctrls1.perBankRdBursts::15            3956                       # Per bank write bursts
system.mem_ctrls1.perBankWrBursts::0                0                       # Per bank write bursts
system.mem_ctrls1.perBankWrBursts::1                0                       # Per bank write bursts
system.mem_ctrls1.perBankWrBursts::2                0                       # Per bank write bursts
system.mem_ctrls1.perBankWrBursts::3                0                       # Per bank write bursts
system.mem_ctrls1.perBankWrBursts::4                0                       # Per bank write bursts
system.mem_ctrls1.perBankWrBursts::5                0                       # Per bank write bursts
system.mem_ctrls1.perBankWrBursts::6                0                       # Per bank write bursts
system.mem_ctrls1.perBankWrBursts::7                0                       # Per bank write bursts
system.mem_ctrls1.perBankWrBursts::8                0                       # Per bank write bursts
system.mem_ctrls1.perBankWrBursts::9                0                       # Per bank write bursts
system.mem_ctrls1.perBankWrBursts::10               0                       # Per bank write bursts
system.mem_ctrls1.perBankWrBursts::11               0                       # Per bank write bursts
system.mem_ctrls1.perBankWrBursts::12               0                       # Per bank write bursts
system.mem_ctrls1.perBankWrBursts::13               0                       # Per bank write bursts
system.mem_ctrls1.perBankWrBursts::14               0                       # Per bank write bursts
system.mem_ctrls1.perBankWrBursts::15               0                       # Per bank write bursts
system.mem_ctrls1.numRdRetry                        0                       # Number of times read queue was full causing retry
system.mem_ctrls1.numWrRetry                        0                       # Number of times write queue was full causing retry
system.mem_ctrls1.totGap                  21167018000                       # Total gap between requests
system.mem_ctrls1.readPktSize::0                    0                       # Read request sizes (log2)
system.mem_ctrls1.readPktSize::1                    0                       # Read request sizes (log2)
system.mem_ctrls1.readPktSize::2                    0                       # Read request sizes (log2)
system.mem_ctrls1.readPktSize::3                    0                       # Read request sizes (log2)
system.mem_ctrls1.readPktSize::4                    0                       # Read request sizes (log2)
system.mem_ctrls1.readPktSize::5                    0                       # Read request sizes (log2)
system.mem_ctrls1.readPktSize::6                54124                       # Read request sizes (log2)
system.mem_ctrls1.writePktSize::0                   0                       # Write request sizes (log2)
system.mem_ctrls1.writePktSize::1                   0                       # Write request sizes (log2)
system.mem_ctrls1.writePktSize::2                   0                       # Write request sizes (log2)
system.mem_ctrls1.writePktSize::3                   0                       # Write request sizes (log2)
system.mem_ctrls1.writePktSize::4                   0                       # Write request sizes (log2)
system.mem_ctrls1.writePktSize::5                   0                       # Write request sizes (log2)
system.mem_ctrls1.writePktSize::6                   0                       # Write request sizes (log2)
system.mem_ctrls1.rdQLenPdf::0                  38512                       # What read queue length does an incoming req see
system.mem_ctrls1.rdQLenPdf::1                  10204                       # What read queue length does an incoming req see
system.mem_ctrls1.rdQLenPdf::2                   3474                       # What read queue length does an incoming req see
system.mem_ctrls1.rdQLenPdf::3                   1246                       # What read queue length does an incoming req see
system.mem_ctrls1.rdQLenPdf::4                    444                       # What read queue length does an incoming req see
system.mem_ctrls1.rdQLenPdf::5                    137                       # What read queue length does an incoming req see
system.mem_ctrls1.rdQLenPdf::6                     56                       # What read queue length does an incoming req see
system.mem_ctrls1.rdQLenPdf::7                     28                       # What read queue length does an incoming req see
system.mem_ctrls1.rdQLenPdf::8                      8                       # What read queue length does an incoming req see
system.mem_ctrls1.rdQLenPdf::9                      5                       # What read queue length does an incoming req see
system.mem_ctrls1.rdQLenPdf::10                     6                       # What read queue length does an incoming req see
system.mem_ctrls1.rdQLenPdf::11                     3                       # What read queue length does an incoming req see
system.mem_ctrls1.rdQLenPdf::12                     1                       # What read queue length does an incoming req see
system.mem_ctrls1.rdQLenPdf::13                     0                       # What read queue length does an incoming req see
system.mem_ctrls1.rdQLenPdf::14                     0                       # What read queue length does an incoming req see
system.mem_ctrls1.rdQLenPdf::15                     0                       # What read queue length does an incoming req see
system.mem_ctrls1.rdQLenPdf::16                     0                       # What read queue length does an incoming req see
system.mem_ctrls1.rdQLenPdf::17                     0                       # What read queue length does an incoming req see
system.mem_ctrls1.rdQLenPdf::18                     0                       # What read queue length does an incoming req see
system.mem_ctrls1.rdQLenPdf::19                     0                       # What read queue length does an incoming req see
system.mem_ctrls1.rdQLenPdf::20                     0                       # What read queue length does an incoming req see
system.mem_ctrls1.rdQLenPdf::21                     0                       # What read queue length does an incoming req see
system.mem_ctrls1.rdQLenPdf::22                     0                       # What read queue length does an incoming req see
system.mem_ctrls1.rdQLenPdf::23                     0                       # What read queue length does an incoming req see
system.mem_ctrls1.rdQLenPdf::24                     0                       # What read queue length does an incoming req see
system.mem_ctrls1.rdQLenPdf::25                     0                       # What read queue length does an incoming req see
system.mem_ctrls1.rdQLenPdf::26                     0                       # What read queue length does an incoming req see
system.mem_ctrls1.rdQLenPdf::27                     0                       # What read queue length does an incoming req see
system.mem_ctrls1.rdQLenPdf::28                     0                       # What read queue length does an incoming req see
system.mem_ctrls1.rdQLenPdf::29                     0                       # What read queue length does an incoming req see
system.mem_ctrls1.rdQLenPdf::30                     0                       # What read queue length does an incoming req see
system.mem_ctrls1.rdQLenPdf::31                     0                       # What read queue length does an incoming req see
system.mem_ctrls1.wrQLenPdf::0                      0                       # What write queue length does an incoming req see
system.mem_ctrls1.wrQLenPdf::1                      0                       # What write queue length does an incoming req see
system.mem_ctrls1.wrQLenPdf::2                      0                       # What write queue length does an incoming req see
system.mem_ctrls1.wrQLenPdf::3                      0                       # What write queue length does an incoming req see
system.mem_ctrls1.wrQLenPdf::4                      0                       # What write queue length does an incoming req see
system.mem_ctrls1.wrQLenPdf::5                      0                       # What write queue length does an incoming req see
system.mem_ctrls1.wrQLenPdf::6                      0                       # What write queue length does an incoming req see
system.mem_ctrls1.wrQLenPdf::7                      0                       # What write queue length does an incoming req see
system.mem_ctrls1.wrQLenPdf::8                      0                       # What write queue length does an incoming req see
system.mem_ctrls1.wrQLenPdf::9                      0                       # What write queue length does an incoming req see
system.mem_ctrls1.wrQLenPdf::10                     0                       # What write queue length does an incoming req see
system.mem_ctrls1.wrQLenPdf::11                     0                       # What write queue length does an incoming req see
system.mem_ctrls1.wrQLenPdf::12                     0                       # What write queue length does an incoming req see
system.mem_ctrls1.wrQLenPdf::13                     0                       # What write queue length does an incoming req see
system.mem_ctrls1.wrQLenPdf::14                     0                       # What write queue length does an incoming req see
system.mem_ctrls1.wrQLenPdf::15                     0                       # What write queue length does an incoming req see
system.mem_ctrls1.wrQLenPdf::16                     0                       # What write queue length does an incoming req see
system.mem_ctrls1.wrQLenPdf::17                     0                       # What write queue length does an incoming req see
system.mem_ctrls1.wrQLenPdf::18                     0                       # What write queue length does an incoming req see
system.mem_ctrls1.wrQLenPdf::19                     0                       # What write queue length does an incoming req see
system.mem_ctrls1.wrQLenPdf::20                     0                       # What write queue length does an incoming req see
system.mem_ctrls1.wrQLenPdf::21                     0                       # What write queue length does an incoming req see
system.mem_ctrls1.wrQLenPdf::22                     0                       # What write queue length does an incoming req see
system.mem_ctrls1.wrQLenPdf::23                     0                       # What write queue length does an incoming req see
system.mem_ctrls1.wrQLenPdf::24                     0                       # What write queue length does an incoming req see
system.mem_ctrls1.wrQLenPdf::25                     0                       # What write queue length does an incoming req see
system.mem_ctrls1.wrQLenPdf::26                     0                       # What write queue length does an incoming req see
system.mem_ctrls1.wrQLenPdf::27                     0                       # What write queue length does an incoming req see
system.mem_ctrls1.wrQLenPdf::28                     0                       # What write queue length does an incoming req see
system.mem_ctrls1.wrQLenPdf::29                     0                       # What write queue length does an incoming req see
system.mem_ctrls1.wrQLenPdf::30                     0                       # What write queue length does an incoming req see
system.mem_ctrls1.wrQLenPdf::31                     0                       # What write queue length does an incoming req see
system.mem_ctrls1.wrQLenPdf::32                     0                       # What write queue length does an incoming req see
system.mem_ctrls1.wrQLenPdf::33                     0                       # What write queue length does an incoming req see
system.mem_ctrls1.wrQLenPdf::34                     0                       # What write queue length does an incoming req see
system.mem_ctrls1.wrQLenPdf::35                     0                       # What write queue length does an incoming req see
system.mem_ctrls1.wrQLenPdf::36                     0                       # What write queue length does an incoming req see
system.mem_ctrls1.wrQLenPdf::37                     0                       # What write queue length does an incoming req see
system.mem_ctrls1.wrQLenPdf::38                     0                       # What write queue length does an incoming req see
system.mem_ctrls1.wrQLenPdf::39                     0                       # What write queue length does an incoming req see
system.mem_ctrls1.wrQLenPdf::40                     0                       # What write queue length does an incoming req see
system.mem_ctrls1.wrQLenPdf::41                     0                       # What write queue length does an incoming req see
system.mem_ctrls1.wrQLenPdf::42                     0                       # What write queue length does an incoming req see
system.mem_ctrls1.wrQLenPdf::43                     0                       # What write queue length does an incoming req see
system.mem_ctrls1.wrQLenPdf::44                     0                       # What write queue length does an incoming req see
system.mem_ctrls1.wrQLenPdf::45                     0                       # What write queue length does an incoming req see
system.mem_ctrls1.wrQLenPdf::46                     0                       # What write queue length does an incoming req see
system.mem_ctrls1.wrQLenPdf::47                     0                       # What write queue length does an incoming req see
system.mem_ctrls1.wrQLenPdf::48                     0                       # What write queue length does an incoming req see
system.mem_ctrls1.wrQLenPdf::49                     0                       # What write queue length does an incoming req see
system.mem_ctrls1.wrQLenPdf::50                     0                       # What write queue length does an incoming req see
system.mem_ctrls1.wrQLenPdf::51                     0                       # What write queue length does an incoming req see
system.mem_ctrls1.wrQLenPdf::52                     0                       # What write queue length does an incoming req see
system.mem_ctrls1.wrQLenPdf::53                     0                       # What write queue length does an incoming req see
system.mem_ctrls1.wrQLenPdf::54                     0                       # What write queue length does an incoming req see
system.mem_ctrls1.wrQLenPdf::55                     0                       # What write queue length does an incoming req see
system.mem_ctrls1.wrQLenPdf::56                     0                       # What write queue length does an incoming req see
system.mem_ctrls1.wrQLenPdf::57                     0                       # What write queue length does an incoming req see
system.mem_ctrls1.wrQLenPdf::58                     0                       # What write queue length does an incoming req see
system.mem_ctrls1.wrQLenPdf::59                     0                       # What write queue length does an incoming req see
system.mem_ctrls1.wrQLenPdf::60                     0                       # What write queue length does an incoming req see
system.mem_ctrls1.wrQLenPdf::61                     0                       # What write queue length does an incoming req see
system.mem_ctrls1.wrQLenPdf::62                     0                       # What write queue length does an incoming req see
system.mem_ctrls1.wrQLenPdf::63                     0                       # What write queue length does an incoming req see
system.mem_ctrls1.bytesPerActivate::samples        34755                       # Bytes accessed per row activation
system.mem_ctrls1.bytesPerActivate::mean    99.650698                       # Bytes accessed per row activation
system.mem_ctrls1.bytesPerActivate::gmean    78.251255                       # Bytes accessed per row activation
system.mem_ctrls1.bytesPerActivate::stdev   110.991327                       # Bytes accessed per row activation
system.mem_ctrls1.bytesPerActivate::0-127        29686     85.42%     85.42% # Bytes accessed per row activation
system.mem_ctrls1.bytesPerActivate::128-255         2521      7.25%     92.67% # Bytes accessed per row activation
system.mem_ctrls1.bytesPerActivate::256-383          436      1.25%     93.92% # Bytes accessed per row activation
system.mem_ctrls1.bytesPerActivate::384-511          186      0.54%     94.46% # Bytes accessed per row activation
system.mem_ctrls1.bytesPerActivate::512-639         1840      5.29%     99.75% # Bytes accessed per row activation
system.mem_ctrls1.bytesPerActivate::640-767           66      0.19%     99.94% # Bytes accessed per row activation
system.mem_ctrls1.bytesPerActivate::768-895           10      0.03%     99.97% # Bytes accessed per row activation
system.mem_ctrls1.bytesPerActivate::1024-1151           10      0.03%    100.00% # Bytes accessed per row activation
system.mem_ctrls1.bytesPerActivate::total        34755                       # Bytes accessed per row activation
system.mem_ctrls1.totQLat                  1541769750                       # Total ticks spent queuing
system.mem_ctrls1.totMemAccLat             2556594750                       # Total ticks spent from burst creation until serviced by the DRAM
system.mem_ctrls1.totBusLat                 270620000                       # Total ticks spent in databus transfers
system.mem_ctrls1.avgQLat                    28485.88                       # Average queueing delay per DRAM burst
system.mem_ctrls1.avgBusLat                   5000.00                       # Average bus latency per DRAM burst
system.mem_ctrls1.avgMemAccLat               47235.88                       # Average memory access latency per DRAM burst
system.mem_ctrls1.avgRdBW                      163.64                       # Average DRAM read bandwidth in MiByte/s
system.mem_ctrls1.avgWrBW                        0.00                       # Average achieved write bandwidth in MiByte/s
system.mem_ctrls1.avgRdBWSys                   163.64                       # Average system read bandwidth in MiByte/s
system.mem_ctrls1.avgWrBWSys                     0.00                       # Average system write bandwidth in MiByte/s
system.mem_ctrls1.peakBW                     12800.00                       # Theoretical peak bandwidth in MiByte/s
system.mem_ctrls1.busUtil                        1.28                       # Data bus utilization in percentage
system.mem_ctrls1.busUtilRead                    1.28                       # Data bus utilization in percentage for reads
system.mem_ctrls1.busUtilWrite                   0.00                       # Data bus utilization in percentage for writes
system.mem_ctrls1.avgRdQLen                      1.16                       # Average read queue length when enqueuing
system.mem_ctrls1.avgWrQLen                      0.00                       # Average write queue length when enqueuing
system.mem_ctrls1.readRowHits                   19365                       # Number of row buffer hits during reads
system.mem_ctrls1.writeRowHits                      0                       # Number of row buffer hits during writes
system.mem_ctrls1.readRowHitRate                35.78                       # Row buffer hit rate for reads
system.mem_ctrls1.writeRowHitRate                 nan                       # Row buffer hit rate for writes
system.mem_ctrls1.avgGap                    391083.77                       # Average gap between requests
system.mem_ctrls1.pageHitRate                   35.78                       # Row buffer hit rate, read and write combined
system.mem_ctrls1_0.actEnergy               113561700                       # Energy for activate commands per rank (pJ)
system.mem_ctrls1_0.preEnergy                60351885                       # Energy for precharge commands per rank (pJ)
system.mem_ctrls1_0.readEnergy              197513820                       # Energy for read commands per rank (pJ)
system.mem_ctrls1_0.writeEnergy                     0                       # Energy for write commands per rank (pJ)
system.mem_ctrls1_0.refreshEnergy        1170889200.000000                       # Energy for refresh commands per rank (pJ)
system.mem_ctrls1_0.actBackEnergy           643345890                       # Energy for active background per rank (pJ)
system.mem_ctrls1_0.preBackEnergy            34416480                       # Energy for precharge background per rank (pJ)
system.mem_ctrls1_0.actPowerDownEnergy     5712656850                       # Energy for active power-down per rank (pJ)
system.mem_ctrls1_0.prePowerDownEnergy      264442080                       # Energy for precharge power-down per rank (pJ)
system.mem_ctrls1_0.selfRefreshEnergy      1557559080                       # Energy for self refresh per rank (pJ)
system.mem_ctrls1_0.totalEnergy            9754736985                       # Total energy per rank (pJ)
system.mem_ctrls1_0.averagePower           460.833559                       # Core power per rank (mW)
system.mem_ctrls1_0.totalIdleTime         19667192250                       # Total Idle time Per DRAM Rank
system.mem_ctrls1_0.memoryStateTime::IDLE     16137500                       # Time in different power states
system.mem_ctrls1_0.memoryStateTime::REF    495402000                       # Time in different power states
system.mem_ctrls1_0.memoryStateTime::SREF   6450712250                       # Time in different power states
system.mem_ctrls1_0.memoryStateTime::PRE_PDN    688612000                       # Time in different power states
system.mem_ctrls1_0.memoryStateTime::ACT    988727250                       # Time in different power states
system.mem_ctrls1_0.memoryStateTime::ACT_PDN  12528000500                       # Time in different power states
system.mem_ctrls1_1.actEnergy               134617560                       # Energy for activate commands per rank (pJ)
system.mem_ctrls1_1.preEnergy                71543340                       # Energy for precharge commands per rank (pJ)
system.mem_ctrls1_1.readEnergy              188931540                       # Energy for read commands per rank (pJ)
system.mem_ctrls1_1.writeEnergy                     0                       # Energy for write commands per rank (pJ)
system.mem_ctrls1_1.refreshEnergy        929950320.000000                       # Energy for refresh commands per rank (pJ)
system.mem_ctrls1_1.actBackEnergy           592022520                       # Energy for active background per rank (pJ)
system.mem_ctrls1_1.preBackEnergy            23712480                       # Energy for precharge background per rank (pJ)
system.mem_ctrls1_1.actPowerDownEnergy     4341536670                       # Energy for active power-down per rank (pJ)
system.mem_ctrls1_1.prePowerDownEnergy      282418560                       # Energy for precharge power-down per rank (pJ)
system.mem_ctrls1_1.selfRefreshEnergy      2304981720                       # Energy for self refresh per rank (pJ)
system.mem_ctrls1_1.totalEnergy            8869714710                       # Total energy per rank (pJ)
system.mem_ctrls1_1.averagePower           419.023312                       # Core power per rank (mW)
system.mem_ctrls1_1.totalIdleTime         19807609500                       # Total Idle time Per DRAM Rank
system.mem_ctrls1_1.memoryStateTime::IDLE     14938750                       # Time in different power states
system.mem_ctrls1_1.memoryStateTime::REF    393518000                       # Time in different power states
system.mem_ctrls1_1.memoryStateTime::SREF   9551169500                       # Time in different power states
system.mem_ctrls1_1.memoryStateTime::PRE_PDN    735350500                       # Time in different power states
system.mem_ctrls1_1.memoryStateTime::ACT    951149000                       # Time in different power states
system.mem_ctrls1_1.memoryStateTime::ACT_PDN   9521465750                       # Time in different power states
system.mem_ctrls2.pwrStateResidencyTicks::UNDEFINED  21167591500                       # Cumulative time (in ticks) in various power states
system.mem_ctrls2.bytes_read::ruby.dir_cntrl2      3479168                       # Number of bytes read from this memory
system.mem_ctrls2.bytes_read::total           3479168                       # Number of bytes read from this memory
system.mem_ctrls2.num_reads::ruby.dir_cntrl2        54362                       # Number of read requests responded to by this memory
system.mem_ctrls2.num_reads::total              54362                       # Number of read requests responded to by this memory
system.mem_ctrls2.bw_read::ruby.dir_cntrl2    164362960                       # Total read bandwidth from this memory (bytes/s)
system.mem_ctrls2.bw_read::total            164362960                       # Total read bandwidth from this memory (bytes/s)
system.mem_ctrls2.bw_total::ruby.dir_cntrl2    164362960                       # Total bandwidth to/from this memory (bytes/s)
system.mem_ctrls2.bw_total::total           164362960                       # Total bandwidth to/from this memory (bytes/s)
system.mem_ctrls2.readReqs                      54362                       # Number of read requests accepted
system.mem_ctrls2.avgNetLat                      0.00                       # Average network latency to DRAM controller
system.mem_ctrls2.writeReqs                         0                       # Number of write requests accepted
system.mem_ctrls2.readBursts                    54362                       # Number of DRAM read bursts, including those serviced by the write queue
system.mem_ctrls2.writeBursts                       0                       # Number of DRAM write bursts, including those merged in the write queue
system.mem_ctrls2.bytesReadDRAM               3479168                       # Total number of bytes read from DRAM
system.mem_ctrls2.bytesReadWrQ                      0                       # Total number of bytes read from write queue
system.mem_ctrls2.bytesWritten                      0                       # Total number of bytes written to DRAM
system.mem_ctrls2.bytesReadSys                3479168                       # Total read bytes from the system interface side
system.mem_ctrls2.bytesWrittenSys                   0                       # Total written bytes from the system interface side
system.mem_ctrls2.servicedByWrQ                     0                       # Number of DRAM read bursts serviced by the write queue
system.mem_ctrls2.mergedWrBursts                    0                       # Number of DRAM write bursts merged with an existing one
system.mem_ctrls2.neitherReadNorWriteReqs            0                       # Number of requests that are neither read nor write
system.mem_ctrls2.perBankRdBursts::0             3996                       # Per bank write bursts
system.mem_ctrls2.perBankRdBursts::1             3977                       # Per bank write bursts
system.mem_ctrls2.perBankRdBursts::2             3554                       # Per bank write bursts
system.mem_ctrls2.perBankRdBursts::3             3502                       # Per bank write bursts
system.mem_ctrls2.perBankRdBursts::4             3237                       # Per bank write bursts
system.mem_ctrls2.perBankRdBursts::5             3112                       # Per bank write bursts
system.mem_ctrls2.perBankRdBursts::6             3164                       # Per bank write bursts
system.mem_ctrls2.perBankRdBursts::7             3128                       # Per bank write bursts
system.mem_ctrls2.perBankRdBursts::8             2659                       # Per bank write bursts
system.mem_ctrls2.perBankRdBursts::9             2586                       # Per bank write bursts
system.mem_ctrls2.perBankRdBursts::10            2812                       # Per bank write bursts
system.mem_ctrls2.perBankRdBursts::11            3252                       # Per bank write bursts
system.mem_ctrls2.perBankRdBursts::12            3679                       # Per bank write bursts
system.mem_ctrls2.perBankRdBursts::13            3796                       # Per bank write bursts
system.mem_ctrls2.perBankRdBursts::14            3947                       # Per bank write bursts
system.mem_ctrls2.perBankRdBursts::15            3961                       # Per bank write bursts
system.mem_ctrls2.perBankWrBursts::0                0                       # Per bank write bursts
system.mem_ctrls2.perBankWrBursts::1                0                       # Per bank write bursts
system.mem_ctrls2.perBankWrBursts::2                0                       # Per bank write bursts
system.mem_ctrls2.perBankWrBursts::3                0                       # Per bank write bursts
system.mem_ctrls2.perBankWrBursts::4                0                       # Per bank write bursts
system.mem_ctrls2.perBankWrBursts::5                0                       # Per bank write bursts
system.mem_ctrls2.perBankWrBursts::6                0                       # Per bank write bursts
system.mem_ctrls2.perBankWrBursts::7                0                       # Per bank write bursts
system.mem_ctrls2.perBankWrBursts::8                0                       # Per bank write bursts
system.mem_ctrls2.perBankWrBursts::9                0                       # Per bank write bursts
system.mem_ctrls2.perBankWrBursts::10               0                       # Per bank write bursts
system.mem_ctrls2.perBankWrBursts::11               0                       # Per bank write bursts
system.mem_ctrls2.perBankWrBursts::12               0                       # Per bank write bursts
system.mem_ctrls2.perBankWrBursts::13               0                       # Per bank write bursts
system.mem_ctrls2.perBankWrBursts::14               0                       # Per bank write bursts
system.mem_ctrls2.perBankWrBursts::15               0                       # Per bank write bursts
system.mem_ctrls2.numRdRetry                        0                       # Number of times read queue was full causing retry
system.mem_ctrls2.numWrRetry                        0                       # Number of times write queue was full causing retry
system.mem_ctrls2.totGap                  21166582500                       # Total gap between requests
system.mem_ctrls2.readPktSize::0                    0                       # Read request sizes (log2)
system.mem_ctrls2.readPktSize::1                    0                       # Read request sizes (log2)
system.mem_ctrls2.readPktSize::2                    0                       # Read request sizes (log2)
system.mem_ctrls2.readPktSize::3                    0                       # Read request sizes (log2)
system.mem_ctrls2.readPktSize::4                    0                       # Read request sizes (log2)
system.mem_ctrls2.readPktSize::5                    0                       # Read request sizes (log2)
system.mem_ctrls2.readPktSize::6                54362                       # Read request sizes (log2)
system.mem_ctrls2.writePktSize::0                   0                       # Write request sizes (log2)
system.mem_ctrls2.writePktSize::1                   0                       # Write request sizes (log2)
system.mem_ctrls2.writePktSize::2                   0                       # Write request sizes (log2)
system.mem_ctrls2.writePktSize::3                   0                       # Write request sizes (log2)
system.mem_ctrls2.writePktSize::4                   0                       # Write request sizes (log2)
system.mem_ctrls2.writePktSize::5                   0                       # Write request sizes (log2)
system.mem_ctrls2.writePktSize::6                   0                       # Write request sizes (log2)
system.mem_ctrls2.rdQLenPdf::0                  38668                       # What read queue length does an incoming req see
system.mem_ctrls2.rdQLenPdf::1                  10250                       # What read queue length does an incoming req see
system.mem_ctrls2.rdQLenPdf::2                   3544                       # What read queue length does an incoming req see
system.mem_ctrls2.rdQLenPdf::3                   1224                       # What read queue length does an incoming req see
system.mem_ctrls2.rdQLenPdf::4                    397                       # What read queue length does an incoming req see
system.mem_ctrls2.rdQLenPdf::5                    163                       # What read queue length does an incoming req see
system.mem_ctrls2.rdQLenPdf::6                     62                       # What read queue length does an incoming req see
system.mem_ctrls2.rdQLenPdf::7                     31                       # What read queue length does an incoming req see
system.mem_ctrls2.rdQLenPdf::8                     12                       # What read queue length does an incoming req see
system.mem_ctrls2.rdQLenPdf::9                      8                       # What read queue length does an incoming req see
system.mem_ctrls2.rdQLenPdf::10                     3                       # What read queue length does an incoming req see
system.mem_ctrls2.rdQLenPdf::11                     0                       # What read queue length does an incoming req see
system.mem_ctrls2.rdQLenPdf::12                     0                       # What read queue length does an incoming req see
system.mem_ctrls2.rdQLenPdf::13                     0                       # What read queue length does an incoming req see
system.mem_ctrls2.rdQLenPdf::14                     0                       # What read queue length does an incoming req see
system.mem_ctrls2.rdQLenPdf::15                     0                       # What read queue length does an incoming req see
system.mem_ctrls2.rdQLenPdf::16                     0                       # What read queue length does an incoming req see
system.mem_ctrls2.rdQLenPdf::17                     0                       # What read queue length does an incoming req see
system.mem_ctrls2.rdQLenPdf::18                     0                       # What read queue length does an incoming req see
system.mem_ctrls2.rdQLenPdf::19                     0                       # What read queue length does an incoming req see
system.mem_ctrls2.rdQLenPdf::20                     0                       # What read queue length does an incoming req see
system.mem_ctrls2.rdQLenPdf::21                     0                       # What read queue length does an incoming req see
system.mem_ctrls2.rdQLenPdf::22                     0                       # What read queue length does an incoming req see
system.mem_ctrls2.rdQLenPdf::23                     0                       # What read queue length does an incoming req see
system.mem_ctrls2.rdQLenPdf::24                     0                       # What read queue length does an incoming req see
system.mem_ctrls2.rdQLenPdf::25                     0                       # What read queue length does an incoming req see
system.mem_ctrls2.rdQLenPdf::26                     0                       # What read queue length does an incoming req see
system.mem_ctrls2.rdQLenPdf::27                     0                       # What read queue length does an incoming req see
system.mem_ctrls2.rdQLenPdf::28                     0                       # What read queue length does an incoming req see
system.mem_ctrls2.rdQLenPdf::29                     0                       # What read queue length does an incoming req see
system.mem_ctrls2.rdQLenPdf::30                     0                       # What read queue length does an incoming req see
system.mem_ctrls2.rdQLenPdf::31                     0                       # What read queue length does an incoming req see
system.mem_ctrls2.wrQLenPdf::0                      0                       # What write queue length does an incoming req see
system.mem_ctrls2.wrQLenPdf::1                      0                       # What write queue length does an incoming req see
system.mem_ctrls2.wrQLenPdf::2                      0                       # What write queue length does an incoming req see
system.mem_ctrls2.wrQLenPdf::3                      0                       # What write queue length does an incoming req see
system.mem_ctrls2.wrQLenPdf::4                      0                       # What write queue length does an incoming req see
system.mem_ctrls2.wrQLenPdf::5                      0                       # What write queue length does an incoming req see
system.mem_ctrls2.wrQLenPdf::6                      0                       # What write queue length does an incoming req see
system.mem_ctrls2.wrQLenPdf::7                      0                       # What write queue length does an incoming req see
system.mem_ctrls2.wrQLenPdf::8                      0                       # What write queue length does an incoming req see
system.mem_ctrls2.wrQLenPdf::9                      0                       # What write queue length does an incoming req see
system.mem_ctrls2.wrQLenPdf::10                     0                       # What write queue length does an incoming req see
system.mem_ctrls2.wrQLenPdf::11                     0                       # What write queue length does an incoming req see
system.mem_ctrls2.wrQLenPdf::12                     0                       # What write queue length does an incoming req see
system.mem_ctrls2.wrQLenPdf::13                     0                       # What write queue length does an incoming req see
system.mem_ctrls2.wrQLenPdf::14                     0                       # What write queue length does an incoming req see
system.mem_ctrls2.wrQLenPdf::15                     0                       # What write queue length does an incoming req see
system.mem_ctrls2.wrQLenPdf::16                     0                       # What write queue length does an incoming req see
system.mem_ctrls2.wrQLenPdf::17                     0                       # What write queue length does an incoming req see
system.mem_ctrls2.wrQLenPdf::18                     0                       # What write queue length does an incoming req see
system.mem_ctrls2.wrQLenPdf::19                     0                       # What write queue length does an incoming req see
system.mem_ctrls2.wrQLenPdf::20                     0                       # What write queue length does an incoming req see
system.mem_ctrls2.wrQLenPdf::21                     0                       # What write queue length does an incoming req see
system.mem_ctrls2.wrQLenPdf::22                     0                       # What write queue length does an incoming req see
system.mem_ctrls2.wrQLenPdf::23                     0                       # What write queue length does an incoming req see
system.mem_ctrls2.wrQLenPdf::24                     0                       # What write queue length does an incoming req see
system.mem_ctrls2.wrQLenPdf::25                     0                       # What write queue length does an incoming req see
system.mem_ctrls2.wrQLenPdf::26                     0                       # What write queue length does an incoming req see
system.mem_ctrls2.wrQLenPdf::27                     0                       # What write queue length does an incoming req see
system.mem_ctrls2.wrQLenPdf::28                     0                       # What write queue length does an incoming req see
system.mem_ctrls2.wrQLenPdf::29                     0                       # What write queue length does an incoming req see
system.mem_ctrls2.wrQLenPdf::30                     0                       # What write queue length does an incoming req see
system.mem_ctrls2.wrQLenPdf::31                     0                       # What write queue length does an incoming req see
system.mem_ctrls2.wrQLenPdf::32                     0                       # What write queue length does an incoming req see
system.mem_ctrls2.wrQLenPdf::33                     0                       # What write queue length does an incoming req see
system.mem_ctrls2.wrQLenPdf::34                     0                       # What write queue length does an incoming req see
system.mem_ctrls2.wrQLenPdf::35                     0                       # What write queue length does an incoming req see
system.mem_ctrls2.wrQLenPdf::36                     0                       # What write queue length does an incoming req see
system.mem_ctrls2.wrQLenPdf::37                     0                       # What write queue length does an incoming req see
system.mem_ctrls2.wrQLenPdf::38                     0                       # What write queue length does an incoming req see
system.mem_ctrls2.wrQLenPdf::39                     0                       # What write queue length does an incoming req see
system.mem_ctrls2.wrQLenPdf::40                     0                       # What write queue length does an incoming req see
system.mem_ctrls2.wrQLenPdf::41                     0                       # What write queue length does an incoming req see
system.mem_ctrls2.wrQLenPdf::42                     0                       # What write queue length does an incoming req see
system.mem_ctrls2.wrQLenPdf::43                     0                       # What write queue length does an incoming req see
system.mem_ctrls2.wrQLenPdf::44                     0                       # What write queue length does an incoming req see
system.mem_ctrls2.wrQLenPdf::45                     0                       # What write queue length does an incoming req see
system.mem_ctrls2.wrQLenPdf::46                     0                       # What write queue length does an incoming req see
system.mem_ctrls2.wrQLenPdf::47                     0                       # What write queue length does an incoming req see
system.mem_ctrls2.wrQLenPdf::48                     0                       # What write queue length does an incoming req see
system.mem_ctrls2.wrQLenPdf::49                     0                       # What write queue length does an incoming req see
system.mem_ctrls2.wrQLenPdf::50                     0                       # What write queue length does an incoming req see
system.mem_ctrls2.wrQLenPdf::51                     0                       # What write queue length does an incoming req see
system.mem_ctrls2.wrQLenPdf::52                     0                       # What write queue length does an incoming req see
system.mem_ctrls2.wrQLenPdf::53                     0                       # What write queue length does an incoming req see
system.mem_ctrls2.wrQLenPdf::54                     0                       # What write queue length does an incoming req see
system.mem_ctrls2.wrQLenPdf::55                     0                       # What write queue length does an incoming req see
system.mem_ctrls2.wrQLenPdf::56                     0                       # What write queue length does an incoming req see
system.mem_ctrls2.wrQLenPdf::57                     0                       # What write queue length does an incoming req see
system.mem_ctrls2.wrQLenPdf::58                     0                       # What write queue length does an incoming req see
system.mem_ctrls2.wrQLenPdf::59                     0                       # What write queue length does an incoming req see
system.mem_ctrls2.wrQLenPdf::60                     0                       # What write queue length does an incoming req see
system.mem_ctrls2.wrQLenPdf::61                     0                       # What write queue length does an incoming req see
system.mem_ctrls2.wrQLenPdf::62                     0                       # What write queue length does an incoming req see
system.mem_ctrls2.wrQLenPdf::63                     0                       # What write queue length does an incoming req see
system.mem_ctrls2.bytesPerActivate::samples        34911                       # Bytes accessed per row activation
system.mem_ctrls2.bytesPerActivate::mean    99.645384                       # Bytes accessed per row activation
system.mem_ctrls2.bytesPerActivate::gmean    78.375647                       # Bytes accessed per row activation
system.mem_ctrls2.bytesPerActivate::stdev   110.401816                       # Bytes accessed per row activation
system.mem_ctrls2.bytesPerActivate::0-127        29727     85.15%     85.15% # Bytes accessed per row activation
system.mem_ctrls2.bytesPerActivate::128-255         2643      7.57%     92.72% # Bytes accessed per row activation
system.mem_ctrls2.bytesPerActivate::256-383          438      1.25%     93.98% # Bytes accessed per row activation
system.mem_ctrls2.bytesPerActivate::384-511          207      0.59%     94.57% # Bytes accessed per row activation
system.mem_ctrls2.bytesPerActivate::512-639         1810      5.18%     99.75% # Bytes accessed per row activation
system.mem_ctrls2.bytesPerActivate::640-767           67      0.19%     99.95% # Bytes accessed per row activation
system.mem_ctrls2.bytesPerActivate::768-895            8      0.02%     99.97% # Bytes accessed per row activation
system.mem_ctrls2.bytesPerActivate::896-1023            1      0.00%     99.97% # Bytes accessed per row activation
system.mem_ctrls2.bytesPerActivate::1024-1151           10      0.03%    100.00% # Bytes accessed per row activation
[...]
system.ruby.L2Cache_Controller.L1_GETS::total       163631                      
system.ruby.L2Cache_Controller.L1_GETX   |       10583      6.21%      6.21% |       10739      6.30%     12.51% |       10727      6.30%     18.81% |       10640      6.24%     25.05% |       10730      6.30%     31.35% |       10637      6.24%     37.59% |       10607      6.23%     43.82% |       10764      6.32%     50.14% |       10621      6.23%     56.37% |       10635      6.24%     62.61% |       10657      6.25%     68.87% |       10561      6.20%     75.06% |       10611      6.23%     81.29% |       10536      6.18%     87.48% |       10670      6.26%     93.74% |       10669      6.26%    100.00%
system.ruby.L2Cache_Controller.L1_GETX::total       170387                      
system.ruby.L2Cache_Controller.L1_PUTX   |       19655      6.20%      6.20% |       19646      6.20%     12.40% |       19351      6.11%     18.51% |       20025      6.32%     24.83% |       19558      6.17%     31.00% |       19493      6.15%     37.15% |       19599      6.18%     43.33% |       20029      6.32%     49.65% |       19905      6.28%     55.93% |       19575      6.18%     62.11% |       19718      6.22%     68.33% |       20173      6.37%     74.70% |       20253      6.39%     81.09% |       20260      6.39%     87.48% |       20109      6.35%     93.82% |       19573      6.18%    100.00%
system.ruby.L2Cache_Controller.L1_PUTX::total       316922                      
system.ruby.L2Cache_Controller.L2_Replacement_clean |           1     33.33%     33.33% |           0      0.00%     33.33% |           0      0.00%     33.33% |           0      0.00%     33.33% |           0      0.00%     33.33% |           0      0.00%     33.33% |           0      0.00%     33.33% |           0      0.00%     33.33% |           0      0.00%     33.33% |           0      0.00%     33.33% |           0      0.00%     33.33% |           0      0.00%     33.33% |           1     33.33%     66.67% |           0      0.00%     66.67% |           0      0.00%     66.67% |           1     33.33%    100.00%
system.ruby.L2Cache_Controller.L2_Replacement_clean::total            3                      
system.ruby.L2Cache_Controller.Mem_Data  |       13622      6.27%      6.27% |       13496      6.21%     12.48% |       13412      6.17%     18.65% |       13552      6.24%     24.89% |       13384      6.16%     31.05% |       13538      6.23%     37.28% |       13594      6.26%     43.53% |       13608      6.26%     49.79% |       13734      6.32%     56.11% |       13328      6.13%     62.25% |       13538      6.23%     68.48% |       13538      6.23%     74.71% |       13706      6.31%     81.01% |       13762      6.33%     87.35% |       13818      6.36%     93.71% |       13678      6.29%    100.00%
system.ruby.L2Cache_Controller.Mem_Data::total       217308                      
system.ruby.L2Cache_Controller.Mem_Ack   |           1     33.33%     33.33% |           0      0.00%     33.33% |           0      0.00%     33.33% |           0      0.00%     33.33% |           0      0.00%     33.33% |           0      0.00%     33.33% |           0      0.00%     33.33% |           0      0.00%     33.33% |           0      0.00%     33.33% |           0      0.00%     33.33% |           0      0.00%     33.33% |           0      0.00%     33.33% |           1     33.33%     66.67% |           0      0.00%     66.67% |           0      0.00%     66.67% |           1     33.33%    100.00%
system.ruby.L2Cache_Controller.Mem_Ack::total            3                      
system.ruby.L2Cache_Controller.WB_Data   |          14      4.19%      4.19% |          14      4.19%      8.38% |          28      8.38%     16.77% |          28      8.38%     25.15% |          28      8.38%     33.53% |          28      8.38%     41.92% |          28      8.38%     50.30% |          28      8.38%     58.68% |          22      6.59%     65.27% |          24      7.19%     72.46% |          22      6.59%     79.04% |          14      4.19%     83.23% |          14      4.19%     87.43% |          14      4.19%     91.62% |          14      4.19%     95.81% |          14      4.19%    100.00%
system.ruby.L2Cache_Controller.WB_Data::total          334                      
system.ruby.L2Cache_Controller.Unblock   |          14      4.19%      4.19% |          14      4.19%      8.38% |          28      8.38%     16.77% |          28      8.38%     25.15% |          28      8.38%     33.53% |          28      8.38%     41.92% |          28      8.38%     50.30% |          28      8.38%     58.68% |          22      6.59%     65.27% |          24      7.19%     72.46% |          22      6.59%     79.04% |          14      4.19%     83.23% |          14      4.19%     87.43% |          14      4.19%     91.62% |          14      4.19%     95.81% |          14      4.19%    100.00%
system.ruby.L2Cache_Controller.Unblock::total          334                      
system.ruby.L2Cache_Controller.Exclusive_Unblock |       20683      6.21%      6.21% |       20674      6.20%     12.41% |       20376      6.11%     18.52% |       21049      6.31%     24.84% |       20583      6.18%     31.01% |       20517      6.16%     37.17% |       20623      6.19%     43.35% |       21039      6.31%     49.66% |       20933      6.28%     55.95% |       20604      6.18%     62.13% |       20742      6.22%     68.35% |       21198      6.36%     74.71% |       21280      6.38%     81.09% |       21287      6.39%     87.48% |       21137      6.34%     93.82% |       20597      6.18%    100.00%
system.ruby.L2Cache_Controller.Exclusive_Unblock::total       333322                      
system.ruby.L2Cache_Controller.NP.L1_GET_INSTR |        1274      6.27%      6.27% |        1302      6.41%     12.68% |        1442      7.10%     19.78% |        1232      6.06%     25.84% |        1274      6.27%     32.12% |        1274      6.27%     38.39% |        1246      6.13%     44.52% |        1246      6.13%     50.65% |        1316      6.48%     57.13% |        1106      5.44%     62.58% |        1190      5.86%     68.44% |        1218      6.00%     74.43% |        1190      5.86%     80.29% |        1260      6.20%     86.49% |        1442      7.10%     93.59% |        1302      6.41%    100.00%
system.ruby.L2Cache_Controller.NP.L1_GET_INSTR::total        20314                      
system.ruby.L2Cache_Controller.NP.L1_GETS |        6692      6.31%      6.31% |        6468      6.10%     12.42% |        6216      5.86%     18.28% |        6608      6.23%     24.51% |        6370      6.01%     30.52% |        6566      6.19%     36.72% |        6636      6.26%     42.98% |        6664      6.29%     49.27% |        6748      6.37%     55.63% |        6566      6.19%     61.83% |        6678      6.30%     68.13% |        6692      6.31%     74.44% |        6874      6.49%     80.93% |        6818      6.43%     87.36% |        6692      6.31%     93.67% |        6706      6.33%    100.00%
system.ruby.L2Cache_Controller.NP.L1_GETS::total       105994                      
system.ruby.L2Cache_Controller.NP.L1_GETX |        5656      6.22%      6.22% |        5726      6.29%     12.51% |        5754      6.32%     18.83% |        5712      6.28%     25.11% |        5740      6.31%     31.42% |        5698      6.26%     37.68% |        5712      6.28%     43.95% |        5698      6.26%     50.22% |        5670      6.23%     56.45% |        5656      6.22%     62.66% |        5670      6.23%     68.89% |        5628      6.18%     75.08% |        5642      6.20%     81.28% |        5684      6.25%     87.52% |        5684      6.25%     93.77% |        5670      6.23%    100.00%
system.ruby.L2Cache_Controller.NP.L1_GETX::total        91000                      
system.ruby.L2Cache_Controller.SS.L1_GET_INSTR |         110      5.03%      5.03% |         127      5.80%     10.83% |         176      8.04%     18.87% |          76      3.47%     22.34% |         415     18.96%     41.30% |         108      4.93%     46.23% |         226     10.32%     56.56% |         118      5.39%     61.95% |         167      7.63%     69.58% |          60      2.74%     72.32% |         130      5.94%     78.25% |         124      5.66%     83.92% |          70      3.20%     87.12% |          79      3.61%     90.73% |         132      6.03%     96.76% |          71      3.24%    100.00%
system.ruby.L2Cache_Controller.SS.L1_GET_INSTR::total         2189                      
system.ruby.L2Cache_Controller.SS.L1_GETS |          14      3.87%      3.87% |          14      3.87%      7.73% |          28      7.73%     15.47% |          28      7.73%     23.20% |          28      7.73%     30.94% |          28      7.73%     38.67% |          28      7.73%     46.41% |          42     11.60%     58.01% |          22      6.08%     64.09% |          38     10.50%     74.59% |          22      6.08%     80.66% |          14      3.87%     84.53% |          14      3.87%     88.40% |          14      3.87%     92.27% |          14      3.87%     96.13% |          14      3.87%    100.00%
system.ruby.L2Cache_Controller.SS.L1_GETS::total          362                      
system.ruby.L2Cache_Controller.M.L1_GET_INSTR |          14     25.00%     25.00% |           0      0.00%     25.00% |           0      0.00%     25.00% |           0      0.00%     25.00% |           0      0.00%     25.00% |           0      0.00%     25.00% |           0      0.00%     25.00% |          14     25.00%     50.00% |           0      0.00%     50.00% |          14     25.00%     75.00% |           0      0.00%     75.00% |           0      0.00%     75.00% |           0      0.00%     75.00% |           0      0.00%     75.00% |          14     25.00%    100.00% |           0      0.00%    100.00%
system.ruby.L2Cache_Controller.M.L1_GET_INSTR::total           56                      
system.ruby.L2Cache_Controller.M.L1_GETS |        3408      5.99%      5.99% |        3467      6.09%     12.07% |        3433      6.03%     18.10% |        3801      6.68%     24.78% |        3483      6.12%     30.90% |        3314      5.82%     36.72% |        3380      5.94%     42.65% |        3611      6.34%     48.99% |        3564      6.26%     55.25% |        3403      5.98%     61.23% |        3407      5.98%     67.21% |        3945      6.93%     74.14% |        3795      6.66%     80.80% |        3933      6.91%     87.71% |        3775      6.63%     94.34% |        3222      5.66%    100.00%
system.ruby.L2Cache_Controller.M.L1_GETS::total        56941                      
system.ruby.L2Cache_Controller.M.L1_GETX |        4927      6.21%      6.21% |        5013      6.31%     12.52% |        4973      6.26%     18.79% |        4928      6.21%     24.99% |        4990      6.29%     31.28% |        4939      6.22%     37.50% |        4895      6.17%     43.67% |        5066      6.38%     50.05% |        4951      6.24%     56.28% |        4979      6.27%     62.56% |        4987      6.28%     68.84% |        4933      6.21%     75.05% |        4969      6.26%     81.31% |        4852      6.11%     87.42% |        4986      6.28%     93.70% |        4999      6.30%    100.00%
system.ruby.L2Cache_Controller.M.L1_GETX::total        79387                      
system.ruby.L2Cache_Controller.M.L2_Replacement_clean |           1     33.33%     33.33% |           0      0.00%     33.33% |           0      0.00%     33.33% |           0      0.00%     33.33% |           0      0.00%     33.33% |           0      0.00%     33.33% |           0      0.00%     33.33% |           0      0.00%     33.33% |           0      0.00%     33.33% |           0      0.00%     33.33% |           0      0.00%     33.33% |           0      0.00%     33.33% |           1     33.33%     66.67% |           0      0.00%     66.67% |           0      0.00%     66.67% |           1     33.33%    100.00%
system.ruby.L2Cache_Controller.M.L2_Replacement_clean::total            3                      
system.ruby.L2Cache_Controller.MT.L1_GETS |          14      4.19%      4.19% |          14      4.19%      8.38% |          28      8.38%     16.77% |          28      8.38%     25.15% |          28      8.38%     33.53% |          28      8.38%     41.92% |          28      8.38%     50.30% |          28      8.38%     58.68% |          22      6.59%     65.27% |          24      7.19%     72.46% |          22      6.59%     79.04% |          14      4.19%     83.23% |          14      4.19%     87.43% |          14      4.19%     91.62% |          14      4.19%     95.81% |          14      4.19%    100.00%
system.ruby.L2Cache_Controller.MT.L1_GETS::total          334                      
system.ruby.L2Cache_Controller.MT.L1_PUTX |       19655      6.20%      6.20% |       19646      6.20%     12.40% |       19351      6.11%     18.51% |       20025      6.32%     24.83% |       19558      6.17%     31.00% |       19493      6.15%     37.15% |       19599      6.18%     43.33% |       20029      6.32%     49.65% |       19905      6.28%     55.93% |       19575      6.18%     62.11% |       19718      6.22%     68.33% |       20173      6.37%     74.70% |       20253      6.39%     81.09% |       20260      6.39%     87.48% |       20109      6.35%     93.82% |       19573      6.18%    100.00%
system.ruby.L2Cache_Controller.MT.L1_PUTX::total       316922                      
system.ruby.L2Cache_Controller.M_I.Mem_Ack |           1     33.33%     33.33% |           0      0.00%     33.33% |           0      0.00%     33.33% |           0      0.00%     33.33% |           0      0.00%     33.33% |           0      0.00%     33.33% |           0      0.00%     33.33% |           0      0.00%     33.33% |           0      0.00%     33.33% |           0      0.00%     33.33% |           0      0.00%     33.33% |           0      0.00%     33.33% |           1     33.33%     66.67% |           0      0.00%     66.67% |           0      0.00%     66.67% |           1     33.33%    100.00%
system.ruby.L2Cache_Controller.M_I.Mem_Ack::total            3                      
system.ruby.L2Cache_Controller.ISS.Mem_Data |        6692      6.31%      6.31% |        6468      6.10%     12.42% |        6216      5.86%     18.28% |        6608      6.23%     24.51% |        6370      6.01%     30.52% |        6566      6.19%     36.72% |        6636      6.26%     42.98% |        6664      6.29%     49.27% |        6748      6.37%     55.63% |        6566      6.19%     61.83% |        6678      6.30%     68.13% |        6692      6.31%     74.44% |        6874      6.49%     80.93% |        6818      6.43%     87.36% |        6692      6.31%     93.67% |        6706      6.33%    100.00%
system.ruby.L2Cache_Controller.ISS.Mem_Data::total       105994                      
system.ruby.L2Cache_Controller.IS.Mem_Data |        1274      6.27%      6.27% |        1302      6.41%     12.68% |        1442      7.10%     19.78% |        1232      6.06%     25.84% |        1274      6.27%     32.12% |        1274      6.27%     38.39% |        1246      6.13%     44.52% |        1246      6.13%     50.65% |        1316      6.48%     57.13% |        1106      5.44%     62.58% |        1190      5.86%     68.44% |        1218      6.00%     74.43% |        1190      5.86%     80.29% |        1260      6.20%     86.49% |        1442      7.10%     93.59% |        1302      6.41%    100.00%
system.ruby.L2Cache_Controller.IS.Mem_Data::total        20314                      
system.ruby.L2Cache_Controller.IM.Mem_Data |        5656      6.22%      6.22% |        5726      6.29%     12.51% |        5754      6.32%     18.83% |        5712      6.28%     25.11% |        5740      6.31%     31.42% |        5698      6.26%     37.68% |        5712      6.28%     43.95% |        5698      6.26%     50.22% |        5670      6.23%     56.45% |        5656      6.22%     62.66% |        5670      6.23%     68.89% |        5628      6.18%     75.08% |        5642      6.20%     81.28% |        5684      6.25%     87.52% |        5684      6.25%     93.77% |        5670      6.23%    100.00%
system.ruby.L2Cache_Controller.IM.Mem_Data::total        91000                      
system.ruby.L2Cache_Controller.MT_MB.Exclusive_Unblock |       20683      6.21%      6.21% |       20674      6.20%     12.41% |       20376      6.11%     18.52% |       21049      6.31%     24.84% |       20583      6.18%     31.01% |       20517      6.16%     37.17% |       20623      6.19%     43.35% |       21039      6.31%     49.66% |       20933      6.28%     55.95% |       20604      6.18%     62.13% |       20742      6.22%     68.35% |       21198      6.36%     74.71% |       21280      6.38%     81.09% |       21287      6.39%     87.48% |       21137      6.34%     93.82% |       20597      6.18%    100.00%
system.ruby.L2Cache_Controller.MT_MB.Exclusive_Unblock::total       333322                      
system.ruby.L2Cache_Controller.MT_IIB.WB_Data |          14      4.22%      4.22% |          14      4.22%      8.43% |          27      8.13%     16.57% |          28      8.43%     25.00% |          28      8.43%     33.43% |          28      8.43%     41.87% |          28      8.43%     50.30% |          28      8.43%     58.73% |          22      6.63%     65.36% |          24      7.23%     72.59% |          21      6.33%     78.92% |          14      4.22%     83.13% |          14      4.22%     87.35% |          14      4.22%     91.57% |          14      4.22%     95.78% |          14      4.22%    100.00%
system.ruby.L2Cache_Controller.MT_IIB.WB_Data::total          332                      
system.ruby.L2Cache_Controller.MT_IIB.Unblock |           0      0.00%      0.00% |           0      0.00%      0.00% |           1     50.00%     50.00% |           0      0.00%     50.00% |           0      0.00%     50.00% |           0      0.00%     50.00% |           0      0.00%     50.00% |           0      0.00%     50.00% |           0      0.00%     50.00% |           0      0.00%     50.00% |           1     50.00%    100.00% |           0      0.00%    100.00% |           0      0.00%    100.00% |           0      0.00%    100.00% |           0      0.00%    100.00% |           0      0.00%    100.00%
system.ruby.L2Cache_Controller.MT_IIB.Unblock::total            2                      
system.ruby.L2Cache_Controller.MT_IB.WB_Data |           0      0.00%      0.00% |           0      0.00%      0.00% |           1     50.00%     50.00% |           0      0.00%     50.00% |           0      0.00%     50.00% |           0      0.00%     50.00% |           0      0.00%     50.00% |           0      0.00%     50.00% |           0      0.00%     50.00% |           0      0.00%     50.00% |           1     50.00%    100.00% |           0      0.00%    100.00% |           0      0.00%    100.00% |           0      0.00%    100.00% |           0      0.00%    100.00% |           0      0.00%    100.00%
system.ruby.L2Cache_Controller.MT_IB.WB_Data::total            2                      
system.ruby.L2Cache_Controller.MT_SB.Unblock |          14      4.22%      4.22% |          14      4.22%      8.43% |          27      8.13%     16.57% |          28      8.43%     25.00% |          28      8.43%     33.43% |          28      8.43%     41.87% |          28      8.43%     50.30% |          28      8.43%     58.73% |          22      6.63%     65.36% |          24      7.23%     72.59% |          21      6.33%     78.92% |          14      4.22%     83.13% |          14      4.22%     87.35% |          14      4.22%     91.57% |          14      4.22%     95.78% |          14      4.22%    100.00%
system.ruby.L2Cache_Controller.MT_SB.Unblock::total          332                      

---------- End Simulation Statistics   ----------
