
---------- Begin Simulation Statistics ----------
sim_seconds                                  0.015983                       # Number of seconds simulated
sim_ticks                                 15982515000                       # Number of ticks simulated
final_tick                                15982515000                       # Number of ticks from beginning of simulation (restored from checkpoints and never reset)
sim_freq                                 1000000000000                       # Frequency of simulated ticks
host_inst_rate                                  55045                       # Simulator instruction rate (inst/s)
host_op_rate                                    95517                       # Simulator op (including micro ops) rate (op/s)
host_tick_rate                               19196039                       # Simulator tick rate (ticks/s)
host_mem_usage                                2040136                       # Number of bytes of host memory used
host_seconds                                   832.59                       # Real time elapsed on the host
sim_insts                                    45830220                       # Number of instructions simulated
sim_ops                                      79527001                       # Number of ops (including micro ops) simulated
system.voltage_domain.voltage                       1                       # Voltage in Volts
system.clk_domain.clock                          1000                       # Clock period in ticks
system.mem_ctrls0.pwrStateResidencyTicks::UNDEFINED  15982515000                       # Cumulative time (in ticks) in various power states
system.mem_ctrls0.bytes_read::ruby.dir_cntrl0     10051520                       # Number of bytes read from this memory
system.mem_ctrls0.bytes_read::total          10051520                       # Number of bytes read from this memory
system.mem_ctrls0.bytes_written::ruby.dir_cntrl0      1085248                       # Number of bytes written to this memory
system.mem_ctrls0.bytes_written::total        1085248                       # Number of bytes written to this memory
system.mem_ctrls0.num_reads::ruby.dir_cntrl0       157055                       # Number of read requests responded to by this memory
system.mem_ctrls0.num_reads::total             157055                       # Number of read requests responded to by this memory
system.mem_ctrls0.num_writes::ruby.dir_cntrl0        16957                       # Number of write requests responded to by this memory
system.mem_ctrls0.num_writes::total             16957                       # Number of write requests responded to by this memory
system.mem_ctrls0.bw_read::ruby.dir_cntrl0    628907278                       # Total read bandwidth from this memory (bytes/s)
system.mem_ctrls0.bw_read::total            628907278                       # Total read bandwidth from this memory (bytes/s)
system.mem_ctrls0.bw_write::ruby.dir_cntrl0     67902204                       # Write bandwidth from this memory (bytes/s)
system.mem_ctrls0.bw_write::total            67902204                       # Write bandwidth from this memory (bytes/s)
system.mem_ctrls0.bw_total::ruby.dir_cntrl0    696809482                       # Total bandwidth to/from this memory (bytes/s)
system.mem_ctrls0.bw_total::total           696809482                       # Total bandwidth to/from this memory (bytes/s)
system.mem_ctrls0.readReqs                     157055                       # Number of read requests accepted
system.mem_ctrls0.avgNetLat                      0.00                       # Average network latency to DRAM controller
system.mem_ctrls0.writeReqs                     16957                       # Number of write requests accepted
system.mem_ctrls0.readBursts                   157055                       # Number of DRAM read bursts, including those serviced by the write queue
system.mem_ctrls0.writeBursts                   16957                       # Number of DRAM write bursts, including those merged in the write queue
system.mem_ctrls0.bytesReadDRAM              10051008                       # Total number of bytes read from DRAM
system.mem_ctrls0.bytesReadWrQ                    512                       # Total number of bytes read from write queue
system.mem_ctrls0.bytesWritten                1083584                       # Total number of bytes written to DRAM
system.mem_ctrls0.bytesReadSys               10051520                       # Total read bytes from the system interface side
system.mem_ctrls0.bytesWrittenSys             1085248                       # Total written bytes from the system interface side
system.mem_ctrls0.servicedByWrQ                     8                       # Number of DRAM read bursts serviced by the write queue
system.mem_ctrls0.mergedWrBursts                    0                       # Number of DRAM write bursts merged with an existing one
system.mem_ctrls0.neitherReadNorWriteReqs            0                       # Number of requests that are neither read nor write
system.mem_ctrls0.perBankRdBursts::0            10570                       # Per bank write bursts
system.mem_ctrls0.perBankRdBursts::1             9912                       # Per bank write bursts
system.mem_ctrls0.perBankRdBursts::2            10090                       # Per bank write bursts
system.mem_ctrls0.perBankRdBursts::3            10010                       # Per bank write bursts
system.mem_ctrls0.perBankRdBursts::4             9513                       # Per bank write bursts
system.mem_ctrls0.perBankRdBursts::5             9141                       # Per bank write bursts
system.mem_ctrls0.perBankRdBursts::6             9028                       # Per bank write bursts
system.mem_ctrls0.perBankRdBursts::7             9022                       # Per bank write bursts
system.mem_ctrls0.perBankRdBursts::8             9245                       # Per bank write bursts
system.mem_ctrls0.perBankRdBursts::9             9568                       # Per bank write bursts
system.mem_ctrls0.perBankRdBursts::10            9655                       # Per bank write bursts
system.mem_ctrls0.perBankRdBursts::11            9642                       # Per bank write bursts
system.mem_ctrls0.perBankRdBursts::12           10430                       # Per bank write bursts
system.mem_ctrls0.perBankRdBursts::13           10322                       # Per bank write bursts
system.mem_ctrls0.perBankRdBursts::14           10295                       # Per bank write bursts
system.mem_ctrls0.perBankRdBursts::15           10604                       # Per bank write bursts
system.mem_ctrls0.perBankWrBursts::0             1271                       # Per bank write bursts
system.mem_ctrls0.perBankWrBursts::1             1129                       # Per bank write bursts
system.mem_ctrls0.perBankWrBursts::2             1212                       # Per bank write bursts
system.mem_ctrls0.perBankWrBursts::3             1085                       # Per bank write bursts
system.mem_ctrls0.perBankWrBursts::4              904                       # Per bank write bursts
system.mem_ctrls0.perBankWrBursts::5              788                       # Per bank write bursts
system.mem_ctrls0.perBankWrBursts::6              769                       # Per bank write bursts
system.mem_ctrls0.perBankWrBursts::7              780                       # Per bank write bursts
system.mem_ctrls0.perBankWrBursts::8              877                       # Per bank write bursts
system.mem_ctrls0.perBankWrBursts::9              924                       # Per bank write bursts
system.mem_ctrls0.perBankWrBursts::10             989                       # Per bank write bursts
system.mem_ctrls0.perBankWrBursts::11            1087                       # Per bank write bursts
system.mem_ctrls0.perBankWrBursts::12            1395                       # Per bank write bursts
system.mem_ctrls0.perBankWrBursts::13            1277                       # Per bank write bursts
system.mem_ctrls0.perBankWrBursts::14            1211                       # Per bank write bursts
system.mem_ctrls0.perBankWrBursts::15            1233                       # Per bank write bursts
system.mem_ctrls0.numRdRetry                        0                       # Number of times read queue was full causing retry
system.mem_ctrls0.numWrRetry                        0                       # Number of times write queue was full causing retry
system.mem_ctrls0.totGap                  15981372500                       # Total gap between requests
system.mem_ctrls0.readPktSize::0                    0                       # Read request sizes (log2)
system.mem_ctrls0.readPktSize::1                    0                       # Read request sizes (log2)
system.mem_ctrls0.readPktSize::2                    0                       # Read request sizes (log2)
system.mem_ctrls0.readPktSize::3                    0                       # Read request sizes (log2)
system.mem_ctrls0.readPktSize::4                    0                       # Read request sizes (log2)
system.mem_ctrls0.readPktSize::5                    0                       # Read request sizes (log2)
system.mem_ctrls0.readPktSize::6               157055                       # Read request sizes (log2)
system.mem_ctrls0.writePktSize::0                   0                       # Write request sizes (log2)
system.mem_ctrls0.writePktSize::1                   0                       # Write request sizes (log2)
system.mem_ctrls0.writePktSize::2                   0                       # Write request sizes (log2)
system.mem_ctrls0.writePktSize::3                   0                       # Write request sizes (log2)
system.mem_ctrls0.writePktSize::4                   0                       # Write request sizes (log2)
system.mem_ctrls0.writePktSize::5                   0                       # Write request sizes (log2)
system.mem_ctrls0.writePktSize::6               16957                       # Write request sizes (log2)
system.mem_ctrls0.rdQLenPdf::0                  76805                       # What read queue length does an incoming req see
system.mem_ctrls0.rdQLenPdf::1                  41885                       # What read queue length does an incoming req see
system.mem_ctrls0.rdQLenPdf::2                  21538                       # What read queue length does an incoming req see
system.mem_ctrls0.rdQLenPdf::3                  10321                       # What read queue length does an incoming req see
system.mem_ctrls0.rdQLenPdf::4                   4300                       # What read queue length does an incoming req see
system.mem_ctrls0.rdQLenPdf::5                   1551                       # What read queue length does an incoming req see
system.mem_ctrls0.rdQLenPdf::6                    481                       # What read queue length does an incoming req see
system.mem_ctrls0.rdQLenPdf::7                    125                       # What read queue length does an incoming req see
system.mem_ctrls0.rdQLenPdf::8                     32                       # What read queue length does an incoming req see
system.mem_ctrls0.rdQLenPdf::9                      7                       # What read queue length does an incoming req see
system.mem_ctrls0.rdQLenPdf::10                     2                       # What read queue length does an incoming req see
system.mem_ctrls0.rdQLenPdf::11                     0                       # What read queue length does an incoming req see
system.mem_ctrls0.rdQLenPdf::12                     0                       # What read queue length does an incoming req see
system.mem_ctrls0.rdQLenPdf::13                     0                       # What read queue length does an incoming req see
system.mem_ctrls0.rdQLenPdf::14                     0                       # What read queue length does an incoming req see
system.mem_ctrls0.rdQLenPdf::15                     0                       # What read queue length does an incoming req see
system.mem_ctrls0.rdQLenPdf::16                     0                       # What read queue length does an incoming req see
system.mem_ctrls0.rdQLenPdf::17                     0                       # What read queue length does an incoming req see
system.mem_ctrls0.rdQLenPdf::18                     0                       # What read queue length does an incoming req see
system.mem_ctrls0.rdQLenPdf::19                     0                       # What read queue length does an incoming req see
system.mem_ctrls0.rdQLenPdf::20                     0                       # What read queue length does an incoming req see
system.mem_ctrls0.rdQLenPdf::21                     0                       # What read queue length does an incoming req see
system.mem_ctrls0.rdQLenPdf::22                     0                       # What read queue length does an incoming req see
system.mem_ctrls0.rdQLenPdf::23                     0                       # What read queue length does an incoming req see
system.mem_ctrls0.rdQLenPdf::24                     0                       # What read queue length does an incoming req see
system.mem_ctrls0.rdQLenPdf::25                     0                       # What read queue length does an incoming req see
system.mem_ctrls0.rdQLenPdf::26                     0                       # What read queue length does an incoming req see
system.mem_ctrls0.rdQLenPdf::27                     0                       # What read queue length does an incoming req see
system.mem_ctrls0.rdQLenPdf::28                     0                       # What read queue length does an incoming req see
system.mem_ctrls0.rdQLenPdf::29                     0                       # What read queue length does an incoming req see
system.mem_ctrls0.rdQLenPdf::30                     0                       # What read queue length does an incoming req see
system.mem_ctrls0.rdQLenPdf::31                     0                       # What read queue length does an incoming req see
system.mem_ctrls0.wrQLenPdf::0                      1                       # What write queue length does an incoming req see
system.mem_ctrls0.wrQLenPdf::1                      1                       # What write queue length does an incoming req see
system.mem_ctrls0.wrQLenPdf::2                      1                       # What write queue length does an incoming req see
system.mem_ctrls0.wrQLenPdf::3                      1                       # What write queue length does an incoming req see
system.mem_ctrls0.wrQLenPdf::4                      1                       # What write queue length does an incoming req see
system.mem_ctrls0.wrQLenPdf::5                      1                       # What write queue length does an incoming req see
system.mem_ctrls0.wrQLenPdf::6                      1                       # What write queue length does an incoming req see
system.mem_ctrls0.wrQLenPdf::7                      1                       # What write queue length does an incoming req see
system.mem_ctrls0.wrQLenPdf::8                      1                       # What write queue length does an incoming req see
system.mem_ctrls0.wrQLenPdf::9                      1                       # What write queue length does an incoming req see
system.mem_ctrls0.wrQLenPdf::10                     1                       # What write queue length does an incoming req see
system.mem_ctrls0.wrQLenPdf::11                     1                       # What write queue length does an incoming req see
system.mem_ctrls0.wrQLenPdf::12                     1                       # What write queue length does an incoming req see
system.mem_ctrls0.wrQLenPdf::13                     1                       # What write queue length does an incoming req see
system.mem_ctrls0.wrQLenPdf::14                     1                       # What write queue length does an incoming req see
system.mem_ctrls0.wrQLenPdf::15                   248                       # What write queue length does an incoming req see
system.mem_ctrls0.wrQLenPdf::16                   286                       # What write queue length does an incoming req see
system.mem_ctrls0.wrQLenPdf::17                   695                       # What write queue length does an incoming req see
system.mem_ctrls0.wrQLenPdf::18                   987                       # What write queue length does an incoming req see
system.mem_ctrls0.wrQLenPdf::19                  1061                       # What write queue length does an incoming req see
system.mem_ctrls0.wrQLenPdf::20                  1069                       # What write queue length does an incoming req see
system.mem_ctrls0.wrQLenPdf::21                  1052                       # What write queue length does an incoming req see
system.mem_ctrls0.wrQLenPdf::22                  1057                       # What write queue length does an incoming req see
system.mem_ctrls0.wrQLenPdf::23                  1049                       # What write queue length does an incoming req see
system.mem_ctrls0.wrQLenPdf::24                  1053                       # What write queue length does an incoming req see
system.mem_ctrls0.wrQLenPdf::25                  1053                       # What write queue length does an incoming req see
system.mem_ctrls0.wrQLenPdf::26                  1046                       # What write queue length does an incoming req see
system.mem_ctrls0.wrQLenPdf::27                  1051                       # What write queue length does an incoming req see
system.mem_ctrls0.wrQLenPdf::28                  1037                       # What write queue length does an incoming req see
system.mem_ctrls0.wrQLenPdf::29                  1040                       # What write queue length does an incoming req see
system.mem_ctrls0.wrQLenPdf::30                  1038                       # What write queue length does an incoming req see
system.mem_ctrls0.wrQLenPdf::31                  1040                       # What write queue length does an incoming req see
system.mem_ctrls0.wrQLenPdf::32                  1037                       # What write queue length does an incoming req see
system.mem_ctrls0.wrQLenPdf::33                    34                       # What write queue length does an incoming req see
system.mem_ctrls0.wrQLenPdf::34                     7                       # What write queue length does an incoming req see
system.mem_ctrls0.wrQLenPdf::35                     2                       # What write queue length does an incoming req see
system.mem_ctrls0.wrQLenPdf::36                     0                       # What write queue length does an incoming req see
system.mem_ctrls0.wrQLenPdf::37                     0                       # What write queue length does an incoming req see
system.mem_ctrls0.wrQLenPdf::38                     0                       # What write queue length does an incoming req see
system.mem_ctrls0.wrQLenPdf::39                     0                       # What write queue length does an incoming req see
system.mem_ctrls0.wrQLenPdf::40                     0                       # What write queue length does an incoming req see
system.mem_ctrls0.wrQLenPdf::41                     0                       # What write queue length does an incoming req see
system.mem_ctrls0.wrQLenPdf::42                     0                       # What write queue length does an incoming req see
system.mem_ctrls0.wrQLenPdf::43                     0                       # What write queue length does an incoming req see
system.mem_ctrls0.wrQLenPdf::44                     0                       # What write queue length does an incoming req see
system.mem_ctrls0.wrQLenPdf::45                     0                       # What write queue length does an incoming req see
system.mem_ctrls0.wrQLenPdf::46                     0                       # What write queue length does an incoming req see
system.mem_ctrls0.wrQLenPdf::47                     0                       # What write queue length does an incoming req see
system.mem_ctrls0.wrQLenPdf::48                     0                       # What write queue length does an incoming req see
system.mem_ctrls0.wrQLenPdf::49                     0                       # What write queue length does an incoming req see
system.mem_ctrls0.wrQLenPdf::50                     0                       # What write queue length does an incoming req see
system.mem_ctrls0.wrQLenPdf::51                     0                       # What write queue length does an incoming req see
system.mem_ctrls0.wrQLenPdf::52                     0                       # What write queue length does an incoming req see
system.mem_ctrls0.wrQLenPdf::53                     0                       # What write queue length does an incoming req see
system.mem_ctrls0.wrQLenPdf::54                     0                       # What write queue length does an incoming req see
system.mem_ctrls0.wrQLenPdf::55                     0                       # What write queue length does an incoming req see
system.mem_ctrls0.wrQLenPdf::56                     0                       # What write queue length does an incoming req see
system.mem_ctrls0.wrQLenPdf::57                     0                       # What write queue length does an incoming req see
system.mem_ctrls0.wrQLenPdf::58                     0                       # What write queue length does an incoming req see
system.mem_ctrls0.wrQLenPdf::59                     0                       # What write queue length does an incoming req see
system.mem_ctrls0.wrQLenPdf::60                     0                       # What write queue length does an incoming req see
system.mem_ctrls0.wrQLenPdf::61                     0                       # What write queue length does an incoming req see
system.mem_ctrls0.wrQLenPdf::62                     0                       # What write queue length does an incoming req see
system.mem_ctrls0.wrQLenPdf::63                     0                       # What write queue length does an incoming req see
system.mem_ctrls0.bytesPerActivate::samples       103907                       # Bytes accessed per row activation
system.mem_ctrls0.bytesPerActivate::mean   107.157978                       # Bytes accessed per row activation
system.mem_ctrls0.bytesPerActivate::gmean    85.049881                       # Bytes accessed per row activation
system.mem_ctrls0.bytesPerActivate::stdev   114.632448                       # Bytes accessed per row activation
system.mem_ctrls0.bytesPerActivate::0-127        76501     73.62%     73.62% # Bytes accessed per row activation
system.mem_ctrls0.bytesPerActivate::128-255        19066     18.35%     91.97% # Bytes accessed per row activation
system.mem_ctrls0.bytesPerActivate::256-383         3335      3.21%     95.18% # Bytes accessed per row activation
system.mem_ctrls0.bytesPerActivate::384-511         2135      2.05%     97.24% # Bytes accessed per row activation
system.mem_ctrls0.bytesPerActivate::512-639         1397      1.34%     98.58% # Bytes accessed per row activation
system.mem_ctrls0.bytesPerActivate::640-767          878      0.84%     99.43% # Bytes accessed per row activation
system.mem_ctrls0.bytesPerActivate::768-895          213      0.20%     99.63% # Bytes accessed per row activation
system.mem_ctrls0.bytesPerActivate::896-1023          186      0.18%     99.81% # Bytes accessed per row activation
system.mem_ctrls0.bytesPerActivate::1024-1151          196      0.19%    100.00% # Bytes accessed per row activation
system.mem_ctrls0.bytesPerActivate::total       103907                       # Bytes accessed per row activation
system.mem_ctrls0.rdPerTurnAround::samples         1024                       # Reads before turning the bus around for writes
system.mem_ctrls0.rdPerTurnAround::mean    153.348633                       # Reads before turning the bus around for writes
system.mem_ctrls0.rdPerTurnAround::gmean    58.781303                       # Reads before turning the bus around for writes
system.mem_ctrls0.rdPerTurnAround::stdev  1993.322867                       # Reads before turning the bus around for writes
system.mem_ctrls0.rdPerTurnAround::0-2047         1022     99.80%     99.80% # Reads before turning the bus around for writes
system.mem_ctrls0.rdPerTurnAround::2048-4095            1      0.10%     99.90% # Reads before turning the bus around for writes
system.mem_ctrls0.rdPerTurnAround::63488-65535            1      0.10%    100.00% # Reads before turning the bus around for writes
system.mem_ctrls0.rdPerTurnAround::total         1024                       # Reads before turning the bus around for writes
system.mem_ctrls0.wrPerTurnAround::samples         1024                       # Writes before turning the bus around for reads
system.mem_ctrls0.wrPerTurnAround::mean     16.534180                       # Writes before turning the bus around for reads
system.mem_ctrls0.wrPerTurnAround::gmean    16.511321                       # Writes before turning the bus around for reads
system.mem_ctrls0.wrPerTurnAround::stdev     0.886966                       # Writes before turning the bus around for reads
system.mem_ctrls0.wrPerTurnAround::16             742     72.46%     72.46% # Writes before turning the bus around for reads
system.mem_ctrls0.wrPerTurnAround::17              26      2.54%     75.00% # Writes before turning the bus around for reads
system.mem_ctrls0.wrPerTurnAround::18             248     24.22%     99.22% # Writes before turning the bus around for reads
system.mem_ctrls0.wrPerTurnAround::19               7      0.68%     99.90% # Writes before turning the bus around for reads
system.mem_ctrls0.wrPerTurnAround::20               1      0.10%    100.00% # Writes before turning the bus around for reads
system.mem_ctrls0.wrPerTurnAround::total         1024                       # Writes before turning the bus around for reads
system.mem_ctrls0.totQLat                  4808612500                       # Total ticks spent queuing
system.mem_ctrls0.totMemAccLat             7753243750                       # Total ticks spent from burst creation until serviced by the DRAM
system.mem_ctrls0.totBusLat                 785235000                       # Total ticks spent in databus transfers
system.mem_ctrls0.avgQLat                    30618.94                       # Average queueing delay per DRAM burst
system.mem_ctrls0.avgBusLat                   5000.00                       # Average bus latency per DRAM burst
system.mem_ctrls0.avgMemAccLat               49368.94                       # Average memory access latency per DRAM burst
system.mem_ctrls0.avgRdBW                      628.88                       # Average DRAM read bandwidth in MiByte/s
system.mem_ctrls0.avgWrBW                       67.80                       # Average achieved write bandwidth in MiByte/s
system.mem_ctrls0.avgRdBWSys                   628.91                       # Average system read bandwidth in MiByte/s
system.mem_ctrls0.avgWrBWSys                    67.90                       # Average system write bandwidth in MiByte/s
system.mem_ctrls0.peakBW                     12800.00                       # Theoretical peak bandwidth in MiByte/s
system.mem_ctrls0.busUtil                        5.44                       # Data bus utilization in percentage
system.mem_ctrls0.busUtilRead                    4.91                       # Data bus utilization in percentage for reads
system.mem_ctrls0.busUtilWrite                   0.53                       # Data bus utilization in percentage for writes
system.mem_ctrls0.avgRdQLen                      1.54                       # Average read queue length when enqueuing
system.mem_ctrls0.avgWrQLen                     13.01                       # Average write queue length when enqueuing
system.mem_ctrls0.readRowHits                   66560                       # Number of row buffer hits during reads
system.mem_ctrls0.writeRowHits                   3509                       # Number of row buffer hits during writes
system.mem_ctrls0.readRowHitRate                42.38                       # Row buffer hit rate for reads
system.mem_ctrls0.writeRowHitRate               20.69                       # Row buffer hit rate for writes
system.mem_ctrls0.avgGap                     91840.63                       # Average gap between requests
system.mem_ctrls0.pageHitRate                   40.27                       # Row buffer hit rate, read and write combined
system.mem_ctrls0_0.actEnergy               361633860                       # Energy for activate commands per rank (pJ)
system.mem_ctrls0_0.preEnergy               192212955                       # Energy for precharge commands per rank (pJ)
system.mem_ctrls0_0.readEnergy              551822040                       # Energy for read commands per rank (pJ)
system.mem_ctrls0_0.writeEnergy              41436360                       # Energy for write commands per rank (pJ)
system.mem_ctrls0_0.refreshEnergy        1224977520.000000                       # Energy for refresh commands per rank (pJ)
system.mem_ctrls0_0.actBackEnergy          1500420690                       # Energy for active background per rank (pJ)
system.mem_ctrls0_0.preBackEnergy            32051040                       # Energy for precharge background per rank (pJ)
system.mem_ctrls0_0.actPowerDownEnergy     5198594940                       # Energy for active power-down per rank (pJ)
system.mem_ctrls0_0.prePowerDownEnergy      232809120                       # Energy for precharge power-down per rank (pJ)
system.mem_ctrls0_0.selfRefreshEnergy       155019270                       # Energy for self refresh per rank (pJ)
system.mem_ctrls0_0.totalEnergy            9491177025                       # Total energy per rank (pJ)
system.mem_ctrls0_0.averagePower           593.847528                       # Core power per rank (mW)
system.mem_ctrls0_0.totalIdleTime         12607164250                       # Total Idle time Per DRAM Rank
system.mem_ctrls0_0.memoryStateTime::IDLE     15781250                       # Time in different power states
system.mem_ctrls0_0.memoryStateTime::REF    518396000                       # Time in different power states
system.mem_ctrls0_0.memoryStateTime::SREF    601509000                       # Time in different power states
system.mem_ctrls0_0.memoryStateTime::PRE_PDN    605987250                       # Time in different power states
system.mem_ctrls0_0.memoryStateTime::ACT   2840688750                       # Time in different power states
system.mem_ctrls0_0.memoryStateTime::ACT_PDN  11400152750                       # Time in different power states
system.mem_ctrls0_1.actEnergy               380276400                       # Energy for activate commands per rank (pJ)
system.mem_ctrls0_1.preEnergy               202114110                       # Energy for precharge commands per rank (pJ)
system.mem_ctrls0_1.readEnergy              569493540                       # Energy for read commands per rank (pJ)
system.mem_ctrls0_1.writeEnergy              46943460                       # Energy for write commands per rank (pJ)
system.mem_ctrls0_1.refreshEnergy        1247719200.000000                       # Energy for refresh commands per rank (pJ)
system.mem_ctrls0_1.actBackEnergy          1570738170                       # Energy for active background per rank (pJ)
system.mem_ctrls0_1.preBackEnergy            37573440                       # Energy for precharge background per rank (pJ)
system.mem_ctrls0_1.actPowerDownEnergy     5119407690                       # Energy for active power-down per rank (pJ)
system.mem_ctrls0_1.prePowerDownEnergy      294476640                       # Energy for precharge power-down per rank (pJ)
system.mem_ctrls0_1.selfRefreshEnergy       128215635                       # Energy for self refresh per rank (pJ)
system.mem_ctrls0_1.totalEnergy            9597055635                       # Total energy per rank (pJ)
system.mem_ctrls0_1.averagePower           600.472181                       # Core power per rank (mW)
system.mem_ctrls0_1.totalIdleTime         12435208750                       # Total Idle time Per DRAM Rank
system.mem_ctrls0_1.memoryStateTime::IDLE     28343000                       # Time in different power states
system.mem_ctrls0_1.memoryStateTime::REF    528094000                       # Time in different power states
system.mem_ctrls0_1.memoryStateTime::SREF    446204000                       # Time in different power states
system.mem_ctrls0_1.memoryStateTime::PRE_PDN    766655500                       # Time in different power states
system.mem_ctrls0_1.memoryStateTime::ACT   2985751750                       # Time in different power states
system.mem_ctrls0_1.memoryStateTime::ACT_PDN  11227466750                       # Time in different power states
system.mem_ctrls1.pwrStateResidencyTicks::UNDEFINED  15982515000                       # Cumulative time (in ticks) in various power states
system.mem_ctrls1.bytes_read::ruby.dir_cntrl1     10029824                       # Number of bytes read from this memory
system.mem_ctrls1.bytes_read::total          10029824                       # Number of bytes read from this memory
system.mem_ctrls1.bytes_written::ruby.dir_cntrl1      1082560                       # Number of bytes written to this memory
system.mem_ctrls1.bytes_written::total        1082560                       # Number of bytes written to this memory
system.mem_ctrls1.num_reads::ruby.dir_cntrl1       156716                       # Number of read requests responded to by this memory
system.mem_ctrls1.num_reads::total             156716                       # Number of read requests responded to by this memory
system.mem_ctrls1.num_writes::ruby.dir_cntrl1        16915                       # Number of write requests responded to by this memory
system.mem_ctrls1.num_writes::total             16915                       # Number of write requests responded to by this memory
system.mem_ctrls1.bw_read::ruby.dir_cntrl1    627549794                       # Total read bandwidth from this memory (bytes/s)
system.mem_ctrls1.bw_read::total            627549794                       # Total read bandwidth from this memory (bytes/s)
system.mem_ctrls1.bw_write::ruby.dir_cntrl1     67734021                       # Write bandwidth from this memory (bytes/s)
system.mem_ctrls1.bw_write::total            67734021                       # Write bandwidth from this memory (bytes/s)
system.mem_ctrls1.bw_total::ruby.dir_cntrl1    695283815                       # Total bandwidth to/from this memory (bytes/s)
system.mem_ctrls1.bw_total::total           695283815                       # Total bandwidth to/from this memory (bytes/s)
system.mem_ctrls1.readReqs                     156716                       # Number of read requests accepted
system.mem_ctrls1.avgNetLat                      0.00                       # Average network latency to DRAM controller
system.mem_ctrls1.writeReqs                     16915                       # Number of write requests accepted
system.mem_ctrls1.readBursts                   156716                       # Number of DRAM read bursts, including those serviced by the write queue
system.mem_ctrls1.writeBursts                   16915                       # Number of DRAM write bursts, including those merged in the write queue
system.mem_ctrls1.bytesReadDRAM              10029504                       # Total number of bytes read from DRAM
system.mem_ctrls1.bytesReadWrQ                    320                       # Total number of bytes read from write queue
system.mem_ctrls1.bytesWritten                1081408                       # Total number of bytes written to DRAM
system.mem_ctrls1.bytesReadSys               10029824                       # Total read bytes from the system interface side
system.mem_ctrls1.bytesWrittenSys             1082560                       # Total written bytes from the system interface side
system.mem_ctrls1.servicedByWrQ                     5                       # Number of DRAM read bursts serviced by the write queue
system.mem_ctrls1.mergedWrBursts                    0                       # Number of DRAM write bursts merged with an existing one
system.mem_ctrls1.neitherReadNorWriteReqs            0                       # Number of requests that are neither read nor write
system.mem_ctrls1.perBankRdBursts::0            10534                       # Per bank write bursts
system.mem_ctrls1.perBankRdBursts::1             9909                       # Per bank write bursts
system.mem_ctrls1.perBankRdBursts::2            10015                       # Per bank write bursts
system.mem_ctrls1.perBankRdBursts::3             9927                       # Per bank write bursts
system.mem_ctrls1.perBankRdBursts::4             9505                       # Per bank write bursts
system.mem_ctrls1.perBankRdBursts::5             9179                       # Per bank write bursts
system.mem_ctrls1.perBankRdBursts::6             8997                       # Per bank write bursts
system.mem_ctrls1.perBankRdBursts::7             8988                       # Per bank write bursts
system.mem_ctrls1.perBankRdBursts::8             9228                       # Per bank write bursts
system.mem_ctrls1.perBankRdBursts::9             9549                       # Per bank write bursts
system.mem_ctrls1.perBankRdBursts::10            9627                       # Per bank write bursts
system.mem_ctrls1.perBankRdBursts::11            9669                       # Per bank write bursts
system.mem_ctrls1.perBankRdBursts::12           10435                       # Per bank write bursts
system.mem_ctrls1.perBankRdBursts::13           10326                       # Per bank write bursts
system.mem_ctrls1.perBankRdBursts::14           10258                       # Per bank write bursts
system.mem_ctrls1.perBankRdBursts::15           10565                       # Per bank write bursts
system.mem_ctrls1.perBankWrBursts::0             1264                       # Per bank write bursts
system.mem_ctrls1.perBankWrBursts::1             1126                       # Per bank write bursts
system.mem_ctrls1.perBankWrBursts::2             1190                       # Per bank write bursts
system.mem_ctrls1.perBankWrBursts::3             1086                       # Per bank write bursts
system.mem_ctrls1.perBankWrBursts::4              921                       # Per bank write bursts
system.mem_ctrls1.perBankWrBursts::5              804                       # Per bank write bursts
system.mem_ctrls1.perBankWrBursts::6              729                       # Per bank write bursts
system.mem_ctrls1.perBankWrBursts::7              785                       # Per bank write bursts
system.mem_ctrls1.perBankWrBursts::8              867                       # Per bank write bursts
system.mem_ctrls1.perBankWrBursts::9              936                       # Per bank write bursts
system.mem_ctrls1.perBankWrBursts::10            1001                       # Per bank write bursts
system.mem_ctrls1.perBankWrBursts::11            1100                       # Per bank write bursts
system.mem_ctrls1.perBankWrBursts::12            1427                       # Per bank write bursts
system.mem_ctrls1.perBankWrBursts::13            1261                       # Per bank write bursts
system.mem_ctrls1.perBankWrBursts::14            1189                       # Per bank write bursts
system.mem_ctrls1.perBankWrBursts::15            1211                       # Per bank write bursts
system.mem_ctrls1.numRdRetry                        0                       # Number of times read queue was full causing retry
system.mem_ctrls1.numWrRetry                        0                       # Number of times write queue was full causing retry
system.mem_ctrls1.totGap                  15981908000                       # Total gap between requests
system.mem_ctrls1.readPktSize::0                    0                       # Read request sizes (log2)
system.mem_ctrls1.readPktSize::1                    0                       # Read request sizes (log2)
system.mem_ctrls1.readPktSize::2                    0                       # Read request sizes (log2)
system.mem_ctrls1.readPktSize::3                    0                       # Read request sizes (log2)
system.mem_ctrls1.readPktSize::4                    0                       # Read request sizes (log2)
system.mem_ctrls1.readPktSize::5                    0                       # Read request sizes (log2)
system.mem_ctrls1.readPktSize::6               156716                       # Read request sizes (log2)
system.mem_ctrls1.writePktSize::0                   0                       # Write request sizes (log2)
system.mem_ctrls1.writePktSize::1                   0                       # Write request sizes (log2)
system.mem_ctrls1.writePktSize::2                   0                       # Write request sizes (log2)
system.mem_ctrls1.writePktSize::3                   0                       # Write request sizes (log2)
system.mem_ctrls1.writePktSize::4                   0                       # Write request sizes (log2)
system.mem_ctrls1.writePktSize::5                   0                       # Write request sizes (log2)
system.mem_ctrls1.writePktSize::6               16915                       # Write request sizes (log2)
system.mem_ctrls1.rdQLenPdf::0                  77528                       # What read queue length does an incoming req see
system.mem_ctrls1.rdQLenPdf::1                  41881                       # What read queue length does an incoming req see
system.mem_ctrls1.rdQLenPdf::2                  21197                       # What read queue length does an incoming req see
system.mem_ctrls1.rdQLenPdf::3                  10053                       # What read queue length does an incoming req see
system.mem_ctrls1.rdQLenPdf::4                   4057                       # What read queue length does an incoming req see
system.mem_ctrls1.rdQLenPdf::5                   1400                       # What read queue length does an incoming req see
system.mem_ctrls1.rdQLenPdf::6                    435                       # What read queue length does an incoming req see
system.mem_ctrls1.rdQLenPdf::7                    118                       # What read queue length does an incoming req see
system.mem_ctrls1.rdQLenPdf::8                     33                       # What read queue length does an incoming req see
system.mem_ctrls1.rdQLenPdf::9                      9                       # What read queue length does an incoming req see
system.mem_ctrls1.rdQLenPdf::10                     0                       # What read queue length does an incoming req see
system.mem_ctrls1.rdQLenPdf::11                     0                       # What read queue length does an incoming req see
system.mem_ctrls1.rdQLenPdf::12                     0                       # What read queue length does an incoming req see
system.mem_ctrls1.rdQLenPdf::13                     0                       # What read queue length does an incoming req see
system.mem_ctrls1.rdQLenPdf::14                     0                       # What read queue length does an incoming req see
system.mem_ctrls1.rdQLenPdf::15                     0                       # What read queue length does an incoming req see
system.mem_ctrls1.rdQLenPdf::16                     0                       # What read queue length does an incoming req see
system.mem_ctrls1.rdQLenPdf::17                     0                       # What read queue length does an incoming req see
system.mem_ctrls1.rdQLenPdf::18                     0                       # What read queue length does an incoming req see
system.mem_ctrls1.rdQLenPdf::19                     0                       # What read queue length does an incoming req see
system.mem_ctrls1.rdQLenPdf::20                     0                       # What read queue length does an incoming req see
system.mem_ctrls1.rdQLenPdf::21                     0                       # What read queue length does an incoming req see
system.mem_ctrls1.rdQLenPdf::22                     0                       # What read queue length does an incoming req see
system.mem_ctrls1.rdQLenPdf::23                     0                       # What read queue length does an incoming req see
system.mem_ctrls1.rdQLenPdf::24                     0                       # What read queue length does an incoming req see
system.mem_ctrls1.rdQLenPdf::25                     0                       # What read queue length does an incoming req see
system.mem_ctrls1.rdQLenPdf::26                     0                       # What read queue length does an incoming req see
system.mem_ctrls1.rdQLenPdf::27                     0                       # What read queue length does an incoming req see
system.mem_ctrls1.rdQLenPdf::28                     0                       # What read queue length does an incoming req see
system.mem_ctrls1.rdQLenPdf::29                     0                       # What read queue length does an incoming req see
system.mem_ctrls1.rdQLenPdf::30                     0                       # What read queue length does an incoming req see
system.mem_ctrls1.rdQLenPdf::31                     0                       # What read queue length does an incoming req see
system.mem_ctrls1.wrQLenPdf::0                      1                       # What write queue length does an incoming req see
system.mem_ctrls1.wrQLenPdf::1                      1                       # What write queue length does an incoming req see
system.mem_ctrls1.wrQLenPdf::2                      1                       # What write queue length does an incoming req see
system.mem_ctrls1.wrQLenPdf::3                      1                       # What write queue length does an incoming req see
system.mem_ctrls1.wrQLenPdf::4                      1                       # What write queue length does an incoming req see
system.mem_ctrls1.wrQLenPdf::5                      1                       # What write queue length does an incoming req see
system.mem_ctrls1.wrQLenPdf::6                      1                       # What write queue length does an incoming req see
system.mem_ctrls1.wrQLenPdf::7                      1                       # What write queue length does an incoming req see
system.mem_ctrls1.wrQLenPdf::8                      1                       # What write queue length does an incoming req see
system.mem_ctrls1.wrQLenPdf::9                      1                       # What write queue length does an incoming req see
system.mem_ctrls1.wrQLenPdf::10                     1                       # What write queue length does an incoming req see
system.mem_ctrls1.wrQLenPdf::11                     1                       # What write queue length does an incoming req see
system.mem_ctrls1.wrQLenPdf::12                     1                       # What write queue length does an incoming req see
system.mem_ctrls1.wrQLenPdf::13                     1                       # What write queue length does an incoming req see
system.mem_ctrls1.wrQLenPdf::14                     1                       # What write queue length does an incoming req see
system.mem_ctrls1.wrQLenPdf::15                   268                       # What write queue length does an incoming req see
system.mem_ctrls1.wrQLenPdf::16                   316                       # What write queue length does an incoming req see
system.mem_ctrls1.wrQLenPdf::17                   734                       # What write queue length does an incoming req see
system.mem_ctrls1.wrQLenPdf::18                   972                       # What write queue length does an incoming req see
system.mem_ctrls1.wrQLenPdf::19                  1044                       # What write queue length does an incoming req see
system.mem_ctrls1.wrQLenPdf::20                  1048                       # What write queue length does an incoming req see
system.mem_ctrls1.wrQLenPdf::21                  1058                       # What write queue length does an incoming req see
system.mem_ctrls1.wrQLenPdf::22                  1045                       # What write queue length does an incoming req see
system.mem_ctrls1.wrQLenPdf::23                  1054                       # What write queue length does an incoming req see
system.mem_ctrls1.wrQLenPdf::24                  1039                       # What write queue length does an incoming req see
system.mem_ctrls1.wrQLenPdf::25                  1037                       # What write queue length does an incoming req see
system.mem_ctrls1.wrQLenPdf::26                  1049                       # What write queue length does an incoming req see
system.mem_ctrls1.wrQLenPdf::27                  1044                       # What write queue length does an incoming req see
system.mem_ctrls1.wrQLenPdf::28                  1036                       # What write queue length does an incoming req see
system.mem_ctrls1.wrQLenPdf::29                  1036                       # What write queue length does an incoming req see
system.mem_ctrls1.wrQLenPdf::30                  1033                       # What write queue length does an incoming req see
system.mem_ctrls1.wrQLenPdf::31                  1034                       # What write queue length does an incoming req see
system.mem_ctrls1.wrQLenPdf::32                  1029                       # What write queue length does an incoming req see
system.mem_ctrls1.wrQLenPdf::33                    24                       # What write queue length does an incoming req see
system.mem_ctrls1.wrQLenPdf::34                     0                       # What write queue length does an incoming req see
system.mem_ctrls1.wrQLenPdf::35                     0                       # What write queue length does an incoming req see
system.mem_ctrls1.wrQLenPdf::36                     0                       # What write queue length does an incoming req see
system.mem_ctrls1.wrQLenPdf::37                     0                       # What write queue length does an incoming req see
system.mem_ctrls1.wrQLenPdf::38                     0                       # What write queue length does an incoming req see
system.mem_ctrls1.wrQLenPdf::39                     0                       # What write queue length does an incoming req see
system.mem_ctrls1.wrQLenPdf::40                     0                       # What write queue length does an incoming req see
system.mem_ctrls1.wrQLenPdf::41                     0                       # What write queue length does an incoming req see
system.mem_ctrls1.wrQLenPdf::42                     0                       # What write queue length does an incoming req see
system.mem_ctrls1.wrQLenPdf::43                     0                       # What write queue length does an incoming req see
system.mem_ctrls1.wrQLenPdf::44                     0                       # What write queue length does an incoming req see
system.mem_ctrls1.wrQLenPdf::45                     0                       # What write queue length does an incoming req see
system.mem_ctrls1.wrQLenPdf::46                     0                       # What write queue length does an incoming req see
system.mem_ctrls1.wrQLenPdf::47                     0                       # What write queue length does an incoming req see
system.mem_ctrls1.wrQLenPdf::48                     0                       # What write queue length does an incoming req see
system.mem_ctrls1.wrQLenPdf::49                     0                       # What write queue length does an incoming req see
system.mem_ctrls1.wrQLenPdf::50                     0                       # What write queue length does an incoming req see
system.mem_ctrls1.wrQLenPdf::51                     0                       # What write queue length does an incoming req see
system.mem_ctrls1.wrQLenPdf::52                     0                       # What write queue length does an incoming req see
system.mem_ctrls1.wrQLenPdf::53                     0                       # What write queue length does an incoming req see
system.mem_ctrls1.wrQLenPdf::54                     0                       # What write queue length does an incoming req see
system.mem_ctrls1.wrQLenPdf::55                     0                       # What write queue length does an incoming req see
system.mem_ctrls1.wrQLenPdf::56                     0                       # What write queue length does an incoming req see
system.mem_ctrls1.wrQLenPdf::57                     0                       # What write queue length does an incoming req see
system.mem_ctrls1.wrQLenPdf::58                     0                       # What write queue length does an incoming req see
system.mem_ctrls1.wrQLenPdf::59                     0                       # What write queue length does an incoming req see
system.mem_ctrls1.wrQLenPdf::60                     0                       # What write queue length does an incoming req see
system.mem_ctrls1.wrQLenPdf::61                     0                       # What write queue length does an incoming req see
system.mem_ctrls1.wrQLenPdf::62                     0                       # What write queue length does an incoming req see
system.mem_ctrls1.wrQLenPdf::63                     0                       # What write queue length does an incoming req see
system.mem_ctrls1.bytesPerActivate::samples       103550                       # Bytes accessed per row activation
system.mem_ctrls1.bytesPerActivate::mean   107.293790                       # Bytes accessed per row activation
system.mem_ctrls1.bytesPerActivate::gmean    85.144820                       # Bytes accessed per row activation
system.mem_ctrls1.bytesPerActivate::stdev   114.692444                       # Bytes accessed per row activation
system.mem_ctrls1.bytesPerActivate::0-127        76112     73.50%     73.50% # Bytes accessed per row activation
system.mem_ctrls1.bytesPerActivate::128-255        19081     18.43%     91.93% # Bytes accessed per row activation
system.mem_ctrls1.bytesPerActivate::256-383         3341      3.23%     95.16% # Bytes accessed per row activation
system.mem_ctrls1.bytesPerActivate::384-511         2170      2.10%     97.25% # Bytes accessed per row activation
system.mem_ctrls1.bytesPerActivate::512-639         1321      1.28%     98.53% # Bytes accessed per row activation
system.mem_ctrls1.bytesPerActivate::640-767          937      0.90%     99.43% # Bytes accessed per row activation
system.mem_ctrls1.bytesPerActivate::768-895          216      0.21%     99.64% # Bytes accessed per row activation
system.mem_ctrls1.bytesPerActivate::896-1023          173      0.17%     99.81% # Bytes accessed per row activation
system.mem_ctrls1.bytesPerActivate::1024-1151          199      0.19%    100.00% # Bytes accessed per row activation
system.mem_ctrls1.bytesPerActivate::total       103550                       # Bytes accessed per row activation
system.mem_ctrls1.rdPerTurnAround::samples         1018                       # Reads before turning the bus around for writes
system.mem_ctrls1.rdPerTurnAround::mean    153.931238                       # Reads before turning the bus around for writes
system.mem_ctrls1.rdPerTurnAround::gmean    58.558033                       # Reads before turning the bus around for writes
system.mem_ctrls1.rdPerTurnAround::stdev  2020.151203                       # Reads before turning the bus around for writes
system.mem_ctrls1.rdPerTurnAround::0-2047         1016     99.80%     99.80% # Reads before turning the bus around for writes
system.mem_ctrls1.rdPerTurnAround::2048-4095            1      0.10%     99.90% # Reads before turning the bus around for writes
system.mem_ctrls1.rdPerTurnAround::63488-65535            1      0.10%    100.00% # Reads before turning the bus around for writes
system.mem_ctrls1.rdPerTurnAround::total         1018                       # Reads before turning the bus around for writes
system.mem_ctrls1.wrPerTurnAround::samples         1018                       # Writes before turning the bus around for reads
system.mem_ctrls1.wrPerTurnAround::mean     16.598232                       # Writes before turning the bus around for reads
system.mem_ctrls1.wrPerTurnAround::gmean    16.574256                       # Writes before turning the bus around for reads
system.mem_ctrls1.wrPerTurnAround::stdev     0.907023                       # Writes before turning the bus around for reads
system.mem_ctrls1.wrPerTurnAround::16             699     68.66%     68.66% # Writes before turning the bus around for reads
system.mem_ctrls1.wrPerTurnAround::17              35      3.44%     72.10% # Writes before turning the bus around for reads
system.mem_ctrls1.wrPerTurnAround::18             278     27.31%     99.41% # Writes before turning the bus around for reads
system.mem_ctrls1.wrPerTurnAround::19               6      0.59%    100.00% # Writes before turning the bus around for reads
system.mem_ctrls1.wrPerTurnAround::total         1018                       # Writes before turning the bus around for reads
system.mem_ctrls1.totQLat                  4701099000                       # Total ticks spent queuing
system.mem_ctrls1.totMemAccLat             7639430250                       # Total ticks spent from burst creation until serviced by the DRAM
system.mem_ctrls1.totBusLat                 783555000                       # Total ticks spent in databus transfers
system.mem_ctrls1.avgQLat                    29998.53                       # Average queueing delay per DRAM burst
system.mem_ctrls1.avgBusLat                   5000.00                       # Average bus latency per DRAM burst
system.mem_ctrls1.avgMemAccLat               48748.53                       # Average memory access latency per DRAM burst
system.mem_ctrls1.avgRdBW                      627.53                       # Average DRAM read bandwidth in MiByte/s
system.mem_ctrls1.avgWrBW                       67.66                       # Average achieved write bandwidth in MiByte/s
system.mem_ctrls1.avgRdBWSys                   627.55                       # Average system read bandwidth in MiByte/s
system.mem_ctrls1.avgWrBWSys                    67.73                       # Average system write bandwidth in MiByte/s
system.mem_ctrls1.peakBW                     12800.00                       # Theoretical peak bandwidth in MiByte/s
system.mem_ctrls1.busUtil                        5.43                       # Data bus utilization in percentage
system.mem_ctrls1.busUtilRead                    4.90                       # Data bus utilization in percentage for reads
system.mem_ctrls1.busUtilWrite                   0.53                       # Data bus utilization in percentage for writes
system.mem_ctrls1.avgRdQLen                      1.53                       # Average read queue length when enqueuing
system.mem_ctrls1.avgWrQLen                     12.95                       # Average write queue length when enqueuing
system.mem_ctrls1.readRowHits                   66449                       # Number of row buffer hits during reads
system.mem_ctrls1.writeRowHits                   3603                       # Number of row buffer hits during writes
system.mem_ctrls1.readRowHitRate                42.40                       # Row buffer hit rate for reads
system.mem_ctrls1.writeRowHitRate               21.30                       # Row buffer hit rate for writes
system.mem_ctrls1.avgGap                     92045.25                       # Average gap between requests
system.mem_ctrls1.pageHitRate                   40.35                       # Row buffer hit rate, read and write combined
system.mem_ctrls1_0.actEnergy               359470440                       # Energy for activate commands per rank (pJ)
system.mem_ctrls1_0.preEnergy               191051685                       # Energy for precharge commands per rank (pJ)
system.mem_ctrls1_0.readEnergy              550165560                       # Energy for read commands per rank (pJ)
system.mem_ctrls1_0.writeEnergy              41264100                       # Energy for write commands per rank (pJ)
system.mem_ctrls1_0.refreshEnergy        1226821440.000000                       # Energy for refresh commands per rank (pJ)
system.mem_ctrls1_0.actBackEnergy          1502240130                       # Energy for active background per rank (pJ)
system.mem_ctrls1_0.preBackEnergy            32639040                       # Energy for precharge background per rank (pJ)
system.mem_ctrls1_0.actPowerDownEnergy     5204909970                       # Energy for active power-down per rank (pJ)
system.mem_ctrls1_0.prePowerDownEnergy      232633440                       # Energy for precharge power-down per rank (pJ)
system.mem_ctrls1_0.selfRefreshEnergy       151061715                       # Energy for self refresh per rank (pJ)
system.mem_ctrls1_0.totalEnergy            9492541950                       # Total energy per rank (pJ)
system.mem_ctrls1_0.averagePower           593.932929                       # Core power per rank (mW)
system.mem_ctrls1_0.totalIdleTime         12602302250                       # Total Idle time Per DRAM Rank
system.mem_ctrls1_0.memoryStateTime::IDLE     16811750                       # Time in different power states
system.mem_ctrls1_0.memoryStateTime::REF    519134000                       # Time in different power states
system.mem_ctrls1_0.memoryStateTime::SREF    582406500                       # Time in different power states
system.mem_ctrls1_0.memoryStateTime::PRE_PDN    605640750                       # Time in different power states
system.mem_ctrls1_0.memoryStateTime::ACT   2843773250                       # Time in different power states
system.mem_ctrls1_0.memoryStateTime::ACT_PDN  11414748750                       # Time in different power states
system.mem_ctrls1_1.actEnergy               379919400                       # Energy for activate commands per rank (pJ)
system.mem_ctrls1_1.preEnergy               201920565                       # Energy for precharge commands per rank (pJ)
system.mem_ctrls1_1.readEnergy              568750980                       # Energy for read commands per rank (pJ)
system.mem_ctrls1_1.writeEnergy              46938240                       # Energy for write commands per rank (pJ)
system.mem_ctrls1_1.refreshEnergy        1260012000.000000                       # Energy for refresh commands per rank (pJ)
system.mem_ctrls1_1.actBackEnergy          1580309040                       # Energy for active background per rank (pJ)
system.mem_ctrls1_1.preBackEnergy            35805600                       # Energy for precharge background per rank (pJ)
system.mem_ctrls1_1.actPowerDownEnergy     5125974090                       # Energy for active power-down per rank (pJ)
system.mem_ctrls1_1.prePowerDownEnergy      311387040                       # Energy for precharge power-down per rank (pJ)
system.mem_ctrls1_1.selfRefreshEnergy       116332875                       # Energy for self refresh per rank (pJ)
system.mem_ctrls1_1.totalEnergy            9627692280                       # Total energy per rank (pJ)
system.mem_ctrls1_1.averagePower           602.389066                       # Core power per rank (mW)
system.mem_ctrls1_1.totalIdleTime         12423115750                       # Total Idle time Per DRAM Rank
system.mem_ctrls1_1.memoryStateTime::IDLE     24996250                       # Time in different power states
system.mem_ctrls1_1.memoryStateTime::REF    533396000                       # Time in different power states
system.mem_ctrls1_1.memoryStateTime::SREF    370848250                       # Time in different power states
system.mem_ctrls1_1.memoryStateTime::PRE_PDN    810706500                       # Time in different power states
system.mem_ctrls1_1.memoryStateTime::ACT   3000848750                       # Time in different power states
system.mem_ctrls1_1.memoryStateTime::ACT_PDN  11241719250                       # Time in different power states
system.mem_ctrls2.pwrStateResidencyTicks::UNDEFINED  15982515000                       # Cumulative time (in ticks) in various power states
system.mem_ctrls2.bytes_read::ruby.dir_cntrl2     10040640                       # Number of bytes read from this memory
system.mem_ctrls2.bytes_read::total          10040640                       # Number of bytes read from this memory
system.mem_ctrls2.bytes_written::ruby.dir_cntrl2      1082368                       # Number of bytes written to this memory
system.mem_ctrls2.bytes_written::total        1082368                       # Number of bytes written to this memory
system.mem_ctrls2.num_reads::ruby.dir_cntrl2       156885                       # Number of read requests responded to by this memory
system.mem_ctrls2.num_reads::total             156885                       # Number of read requests responded to by this memory
system.mem_ctrls2.num_writes::ruby.dir_cntrl2        16912                       # Number of write requests responded to by this memory
system.mem_ctrls2.num_writes::total             16912                       # Number of write requests responded to by this memory
system.mem_ctrls2.bw_read::ruby.dir_cntrl2    628226534                       # Total read bandwidth from this memory (bytes/s)
system.mem_ctrls2.bw_read::total            628226534                       # Total read bandwidth from this memory (bytes/s)
system.mem_ctrls2.bw_write::ruby.dir_cntrl2     67722007                       # Write bandwidth from this memory (bytes/s)
system.mem_ctrls2.bw_write::total            67722007                       # Write bandwidth from this memory (bytes/s)
system.mem_ctrls2.bw_total::ruby.dir_cntrl2    695948541                       # Total bandwidth to/from this memory (bytes/s)
system.mem_ctrls2.bw_total::total           695948541                       # Total bandwidth to/from this memory (bytes/s)
system.mem_ctrls2.readReqs                     156885                       # Number of read requests accepted
system.mem_ctrls2.avgNetLat                      0.00                       # Average network latency to DRAM controller
system.mem_ctrls2.writeReqs                     16912                       # Number of write requests accepted
system.mem_ctrls2.readBursts                   156885                       # Number of DRAM read bursts, including those serviced by the write queue
system.mem_ctrls2.writeBursts                   16912                       # Number of DRAM write bursts, including those merged in the write queue
system.mem_ctrls2.bytesReadDRAM              10040128                       # Total number of bytes read from DRAM
system.mem_ctrls2.bytesReadWrQ                    512                       # Total number of bytes read from write queue
system.mem_ctrls2.bytesWritten                1080448                       # Total number of bytes written to DRAM
system.mem_ctrls2.bytesReadSys               10040640                       # Total read bytes from the system interface side
system.mem_ctrls2.bytesWrittenSys             1082368                       # Total written bytes from the system interface side
system.mem_ctrls2.servicedByWrQ                     8                       # Number of DRAM read bursts serviced by the write queue
system.mem_ctrls2.mergedWrBursts                    0                       # Number of DRAM write bursts merged with an existing one
system.mem_ctrls2.neitherReadNorWriteReqs            0                       # Number of requests that are neither read nor write
system.mem_ctrls2.perBankRdBursts::0            10557                       # Per bank write bursts
system.mem_ctrls2.perBankRdBursts::1             9917                       # Per bank write bursts
system.mem_ctrls2.perBankRdBursts::2            10044                       # Per bank write bursts
system.mem_ctrls2.perBankRdBursts::3             9912                       # Per bank write bursts
system.mem_ctrls2.perBankRdBursts::4             9470                       # Per bank write bursts
system.mem_ctrls2.perBankRdBursts::5             9144                       # Per bank write bursts
system.mem_ctrls2.perBankRdBursts::6             9032                       # Per bank write bursts
system.mem_ctrls2.perBankRdBursts::7             8980                       # Per bank write bursts
system.mem_ctrls2.perBankRdBursts::8             9201                       # Per bank write bursts
system.mem_ctrls2.perBankRdBursts::9             9560                       # Per bank write bursts
system.mem_ctrls2.perBankRdBursts::10            9663                       # Per bank write bursts
system.mem_ctrls2.perBankRdBursts::11            9662                       # Per bank write bursts
system.mem_ctrls2.perBankRdBursts::12           10440                       # Per bank write bursts
system.mem_ctrls2.perBankRdBursts::13           10353                       # Per bank write bursts
system.mem_ctrls2.perBankRdBursts::14           10275                       # Per bank write bursts
system.mem_ctrls2.perBankRdBursts::15           10667                       # Per bank write bursts
system.mem_ctrls2.perBankWrBursts::0             1247                       # Per bank write bursts
system.mem_ctrls2.perBankWrBursts::1             1117                       # Per bank write bursts
system.mem_ctrls2.perBankWrBursts::2             1193                       # Per bank write bursts
system.mem_ctrls2.perBankWrBursts::3             1085                       # Per bank write bursts
system.mem_ctrls2.perBankWrBursts::4              891                       # Per bank write bursts
system.mem_ctrls2.perBankWrBursts::5              789                       # Per bank write bursts
system.mem_ctrls2.perBankWrBursts::6              762                       # Per bank write bursts
system.mem_ctrls2.perBankWrBursts::7              776                       # Per bank write bursts
system.mem_ctrls2.perBankWrBursts::8              868                       # Per bank write bursts
system.mem_ctrls2.perBankWrBursts::9              937                       # Per bank write bursts
system.mem_ctrls2.perBankWrBursts::10             985                       # Per bank write bursts
system.mem_ctrls2.perBankWrBursts::11            1102                       # Per bank write bursts
system.mem_ctrls2.perBankWrBursts::12            1422                       # Per bank write bursts
system.mem_ctrls2.perBankWrBursts::13            1281                       # Per bank write bursts
system.mem_ctrls2.perBankWrBursts::14            1187                       # Per bank write bursts
system.mem_ctrls2.perBankWrBursts::15            1240                       # Per bank write bursts
system.mem_ctrls2.numRdRetry                        0                       # Number of times read queue was full causing retry
system.mem_ctrls2.numWrRetry                        0                       # Number of times write queue was full causing retry
system.mem_ctrls2.totGap                  15981559000                       # Total gap between requests
system.mem_ctrls2.readPktSize::0                    0                       # Read request sizes (log2)
system.mem_ctrls2.readPktSize::1                    0                       # Read request sizes (log2)
system.mem_ctrls2.readPktSize::2                    0                       # Read request sizes (log2)
system.mem_ctrls2.readPktSize::3                    0                       # Read request sizes (log2)
system.mem_ctrls2.readPktSize::4                    0                       # Read request sizes (log2)
system.mem_ctrls2.readPktSize::5                    0                       # Read request sizes (log2)
system.mem_ctrls2.readPktSize::6               156885                       # Read request sizes (log2)
system.mem_ctrls2.writePktSize::0                   0                       # Write request sizes (log2)
system.mem_ctrls2.writePktSize::1                   0                       # Write request sizes (log2)
system.mem_ctrls2.writePktSize::2                   0                       # Write request sizes (log2)
system.mem_ctrls2.writePktSize::3                   0                       # Write request sizes (log2)
system.mem_ctrls2.writePktSize::4                   0                       # Write request sizes (log2)
system.mem_ctrls2.writePktSize::5                   0                       # Write request sizes (log2)
system.mem_ctrls2.writePktSize::6               16912                       # Write request sizes (log2)
system.mem_ctrls2.rdQLenPdf::0                  77363                       # What read queue length does an incoming req see
system.mem_ctrls2.rdQLenPdf::1                  42042                       # What read queue length does an incoming req see
system.mem_ctrls2.rdQLenPdf::2                  21440                       # What read queue length does an incoming req see
system.mem_ctrls2.rdQLenPdf::3                   9950                       # What read queue length does an incoming req see
system.mem_ctrls2.rdQLenPdf::4                   4106                       # What read queue length does an incoming req see
system.mem_ctrls2.rdQLenPdf::5                   1402                       # What read queue length does an incoming req see
system.mem_ctrls2.rdQLenPdf::6                    417                       # What read queue length does an incoming req see
system.mem_ctrls2.rdQLenPdf::7                    122                       # What read queue length does an incoming req see
system.mem_ctrls2.rdQLenPdf::8                     31                       # What read queue length does an incoming req see
system.mem_ctrls2.rdQLenPdf::9                      4                       # What read queue length does an incoming req see
system.mem_ctrls2.rdQLenPdf::10                     0                       # What read queue length does an incoming req see
system.mem_ctrls2.rdQLenPdf::11                     0                       # What read queue length does an incoming req see
system.mem_ctrls2.rdQLenPdf::12                     0                       # What read queue length does an incoming req see
system.mem_ctrls2.rdQLenPdf::13                     0                       # What read queue length does an incoming req see
system.mem_ctrls2.rdQLenPdf::14                     0                       # What read queue length does an incoming req see
system.mem_ctrls2.rdQLenPdf::15                     0                       # What read queue length does an incoming req see
system.mem_ctrls2.rdQLenPdf::16                     0                       # What read queue length does an incoming req see
system.mem_ctrls2.rdQLenPdf::17                     0                       # What read queue length does an incoming req see
system.mem_ctrls2.rdQLenPdf::18                     0                       # What read queue length does an incoming req see
system.mem_ctrls2.rdQLenPdf::19                     0                       # What read queue length does an incoming req see
system.mem_ctrls2.rdQLenPdf::20                     0                       # What read queue length does an incoming req see
system.mem_ctrls2.rdQLenPdf::21                     0                       # What read queue length does an incoming req see
system.mem_ctrls2.rdQLenPdf::22                     0                       # What read queue length does an incoming req see
system.mem_ctrls2.rdQLenPdf::23                     0                       # What read queue length does an incoming req see
system.mem_ctrls2.rdQLenPdf::24                     0                       # What read queue length does an incoming req see
system.mem_ctrls2.rdQLenPdf::25                     0                       # What read queue length does an incoming req see
system.mem_ctrls2.rdQLenPdf::26                     0                       # What read queue length does an incoming req see
system.mem_ctrls2.rdQLenPdf::27                     0                       # What read queue length does an incoming req see
system.mem_ctrls2.rdQLenPdf::28                     0                       # What read queue length does an incoming req see
system.mem_ctrls2.rdQLenPdf::29                     0                       # What read queue length does an incoming req see
system.mem_ctrls2.rdQLenPdf::30                     0                       # What read queue length does an incoming req see
system.mem_ctrls2.rdQLenPdf::31                     0                       # What read queue length does an incoming req see
system.mem_ctrls2.wrQLenPdf::0                      1                       # What write queue length does an incoming req see
system.mem_ctrls2.wrQLenPdf::1                      1                       # What write queue length does an incoming req see
system.mem_ctrls2.wrQLenPdf::2                      1                       # What write queue length does an incoming req see
system.mem_ctrls2.wrQLenPdf::3                      1                       # What write queue length does an incoming req see
system.mem_ctrls2.wrQLenPdf::4                      1                       # What write queue length does an incoming req see
system.mem_ctrls2.wrQLenPdf::5                      1                       # What write queue length does an incoming req see
system.mem_ctrls2.wrQLenPdf::6                      1                       # What write queue length does an incoming req see
system.mem_ctrls2.wrQLenPdf::7                      1                       # What write queue length does an incoming req see
system.mem_ctrls2.wrQLenPdf::8                      1                       # What write queue length does an incoming req see
system.mem_ctrls2.wrQLenPdf::9                      1                       # What write queue length does an incoming req see
system.mem_ctrls2.wrQLenPdf::10                     1                       # What write queue length does an incoming req see
system.mem_ctrls2.wrQLenPdf::11                     1                       # What write queue length does an incoming req see
system.mem_ctrls2.wrQLenPdf::12                     1                       # What write queue length does an incoming req see
system.mem_ctrls2.wrQLenPdf::13                     1                       # What write queue length does an incoming req see
system.mem_ctrls2.wrQLenPdf::14                     1                       # What write queue length does an incoming req see
system.mem_ctrls2.wrQLenPdf::15                   248                       # What write queue length does an incoming req see
system.mem_ctrls2.wrQLenPdf::16                   295                       # What write queue length does an incoming req see
system.mem_ctrls2.wrQLenPdf::17                   701                       # What write queue length does an incoming req see
system.mem_ctrls2.wrQLenPdf::18                   993                       # What write queue length does an incoming req see
system.mem_ctrls2.wrQLenPdf::19                  1045                       # What write queue length does an incoming req see
system.mem_ctrls2.wrQLenPdf::20                  1054                       # What write queue length does an incoming req see
system.mem_ctrls2.wrQLenPdf::21                  1057                       # What write queue length does an incoming req see
[...]
system.ruby.L2Cache_Controller.M.L1_GET_INSTR |          14     25.00%     25.00% |           0      0.00%     25.00% |           0      0.00%     25.00% |           0      0.00%     25.00% |           0      0.00%     25.00% |           0      0.00%     25.00% |           0      0.00%     25.00% |           0      0.00%     25.00% |          14     25.00%     50.00% |          14     25.00%     75.00% |           0      0.00%     75.00% |           0      0.00%     75.00% |           0      0.00%     75.00% |           0      0.00%     75.00% |          14     25.00%    100.00% |           0      0.00%    100.00%
system.ruby.L2Cache_Controller.M.L1_GET_INSTR::total           56                      
system.ruby.L2Cache_Controller.M.L1_GETS |       10005      6.17%      6.17% |       10124      6.25%     12.42% |       10013      6.18%     18.60% |       10183      6.28%     24.88% |        9872      6.09%     30.97% |        9700      5.98%     36.96% |        9837      6.07%     43.02% |       10027      6.19%     49.21% |       10016      6.18%     55.39% |        9828      6.06%     61.45% |       10036      6.19%     67.65% |       10841      6.69%     74.34% |       11030      6.81%     81.14% |       10573      6.52%     87.66% |       10438      6.44%     94.10% |        9556      5.90%    100.00%
system.ruby.L2Cache_Controller.M.L1_GETS::total       162079                      
system.ruby.L2Cache_Controller.M.L1_GETX |        1250      6.06%      6.06% |        1348      6.54%     12.60% |        1351      6.55%     19.15% |        1247      6.05%     25.20% |        1276      6.19%     31.38% |        1209      5.86%     37.25% |        1168      5.66%     42.91% |        1326      6.43%     49.34% |        1217      5.90%     55.24% |        1267      6.14%     61.39% |        1241      6.02%     67.40% |        1237      6.00%     73.40% |        1815      8.80%     82.20% |        1138      5.52%     87.72% |        1247      6.05%     93.77% |        1285      6.23%    100.00%
system.ruby.L2Cache_Controller.M.L1_GETX::total        20622                      
system.ruby.L2Cache_Controller.M.L2_Replacement |        4197      6.26%      6.26% |        4170      6.22%     12.47% |        4145      6.18%     18.65% |        4259      6.35%     25.00% |        4112      6.13%     31.13% |        4199      6.26%     37.39% |        4147      6.18%     43.57% |        4181      6.23%     49.80% |        4284      6.39%     56.18% |        4082      6.08%     62.27% |        4171      6.22%     68.48% |        4143      6.18%     74.66% |        4205      6.27%     80.93% |        4315      6.43%     87.36% |        4308      6.42%     93.78% |        4173      6.22%    100.00%
system.ruby.L2Cache_Controller.M.L2_Replacement::total        67091                      
system.ruby.L2Cache_Controller.M.L2_Replacement_clean |        2986      6.31%      6.31% |        2843      6.01%     12.33% |        2835      5.99%     18.32% |        2936      6.21%     24.53% |        2872      6.07%     30.60% |        2923      6.18%     36.78% |        2953      6.24%     43.02% |        3012      6.37%     49.39% |        2988      6.32%     55.71% |        2905      6.14%     61.85% |        2964      6.27%     68.12% |        3013      6.37%     74.49% |        3061      6.47%     80.96% |        3018      6.38%     87.35% |        2963      6.27%     93.61% |        3022      6.39%    100.00%
system.ruby.L2Cache_Controller.M.L2_Replacement_clean::total        47294                      
system.ruby.L2Cache_Controller.MT.L1_GETS |          70      3.99%      3.99% |          70      3.99%      7.97% |          98      5.58%     13.55% |          98      5.58%     19.13% |          98      5.58%     24.72% |         140      7.97%     32.69% |         140      7.97%     40.66% |         140      7.97%     48.63% |         136      7.74%     56.38% |         136      7.74%     64.12% |         130      7.40%     71.53% |         136      7.74%     79.27% |         112      6.38%     85.65% |         112      6.38%     92.03% |          70      3.99%     96.01% |          70      3.99%    100.00%
system.ruby.L2Cache_Controller.MT.L1_GETS::total         1756                      
system.ruby.L2Cache_Controller.MT.L1_GETX |           0      0.00%      0.00% |           0      0.00%      0.00% |           0      0.00%      0.00% |           0      0.00%      0.00% |           0      0.00%      0.00% |           0      0.00%      0.00% |           0      0.00%      0.00% |           0      0.00%      0.00% |           2     18.18%     18.18% |           2     18.18%     36.36% |           5     45.45%     81.82% |           2     18.18%    100.00% |           0      0.00%    100.00% |           0      0.00%    100.00% |           0      0.00%    100.00% |           0      0.00%    100.00%
system.ruby.L2Cache_Controller.MT.L1_GETX::total           11                      
system.ruby.L2Cache_Controller.MT.L1_PUTX |       48263      6.23%      6.23% |       48302      6.24%     12.47% |       48010      6.20%     18.67% |       48476      6.26%     24.93% |       47863      6.18%     31.12% |       47846      6.18%     37.30% |       47979      6.20%     43.49% |       48380      6.25%     49.74% |       48358      6.25%     55.99% |       47920      6.19%     62.18% |       48244      6.23%     68.41% |       49071      6.34%     74.75% |       50019      6.46%     81.21% |       48915      6.32%     87.53% |       48716      6.29%     93.82% |       47859      6.18%    100.00%
system.ruby.L2Cache_Controller.MT.L1_PUTX::total       774221                      
system.ruby.L2Cache_Controller.MT.L2_Replacement |           6      6.32%      6.32% |           8      8.42%     14.74% |           7      7.37%     22.11% |           9      9.47%     31.58% |           7      7.37%     38.95% |           7      7.37%     46.32% |           4      4.21%     50.53% |           4      4.21%     54.74% |           4      4.21%     58.95% |           4      4.21%     63.16% |           7      7.37%     70.53% |           5      5.26%     75.79% |           6      6.32%     82.11% |           5      5.26%     87.37% |           8      8.42%     95.79% |           4      4.21%    100.00%
system.ruby.L2Cache_Controller.MT.L2_Replacement::total           95                      
system.ruby.L2Cache_Controller.MT.L2_Replacement_clean |          32      6.46%      6.46% |          34      6.87%     13.33% |          24      4.85%     18.18% |          27      5.45%     23.64% |          37      7.47%     31.11% |          34      6.87%     37.98% |          33      6.67%     44.65% |          29      5.86%     50.51% |          32      6.46%     56.97% |          30      6.06%     63.03% |          23      4.65%     67.68% |          24      4.85%     72.53% |          34      6.87%     79.39% |          30      6.06%     85.45% |          36      7.27%     92.73% |          36      7.27%    100.00%
system.ruby.L2Cache_Controller.MT.L2_Replacement_clean::total          495                      
system.ruby.L2Cache_Controller.M_I.L1_GET_INSTR |           0      0.00%      0.00% |           0      0.00%      0.00% |           1     50.00%     50.00% |           1     50.00%    100.00% |           0      0.00%    100.00% |           0      0.00%    100.00% |           0      0.00%    100.00% |           0      0.00%    100.00% |           0      0.00%    100.00% |           0      0.00%    100.00% |           0      0.00%    100.00% |           0      0.00%    100.00% |           0      0.00%    100.00% |           0      0.00%    100.00% |           0      0.00%    100.00% |           0      0.00%    100.00%
system.ruby.L2Cache_Controller.M_I.L1_GET_INSTR::total            2                      
system.ruby.L2Cache_Controller.M_I.Mem_Ack |        7762      6.26%      6.26% |        7649      6.17%     12.43% |        7619      6.15%     18.58% |        7765      6.26%     24.84% |        7592      6.12%     30.96% |        7761      6.26%     37.22% |        7706      6.22%     43.44% |        7770      6.27%     49.71% |        7923      6.39%     56.10% |        7485      6.04%     62.13% |        7671      6.19%     68.32% |        7744      6.25%     74.57% |        7846      6.33%     80.90% |        7961      6.42%     87.32% |        7935      6.40%     93.72% |        7787      6.28%    100.00%
system.ruby.L2Cache_Controller.M_I.Mem_Ack::total       123976                      
system.ruby.L2Cache_Controller.MT_I.WB_Data |           2      4.88%      4.88% |           5     12.20%     17.07% |           3      7.32%     24.39% |           4      9.76%     34.15% |           4      9.76%     43.90% |           4      9.76%     53.66% |           2      4.88%     58.54% |           1      2.44%     60.98% |           1      2.44%     63.41% |           2      4.88%     68.29% |           2      4.88%     73.17% |           3      7.32%     80.49% |           3      7.32%     87.80% |           0      0.00%     87.80% |           1      2.44%     90.24% |           4      9.76%    100.00%
system.ruby.L2Cache_Controller.MT_I.WB_Data::total           41                      
system.ruby.L2Cache_Controller.MT_I.Ack_all |           4      7.41%      7.41% |           3      5.56%     12.96% |           4      7.41%     20.37% |           5      9.26%     29.63% |           3      5.56%     35.19% |           3      5.56%     40.74% |           2      3.70%     44.44% |           3      5.56%     50.00% |           3      5.56%     55.56% |           2      3.70%     59.26% |           5      9.26%     68.52% |           2      3.70%     72.22% |           3      5.56%     77.78% |           5      9.26%     87.04% |           7     12.96%    100.00% |           0      0.00%    100.00%
system.ruby.L2Cache_Controller.MT_I.Ack_all::total           54                      
system.ruby.L2Cache_Controller.MCT_I.WB_Data |          30      6.49%      6.49% |          34      7.36%     13.85% |          24      5.19%     19.05% |          25      5.41%     24.46% |          34      7.36%     31.82% |          30      6.49%     38.31% |          29      6.28%     44.59% |          28      6.06%     50.65% |          31      6.71%     57.36% |          27      5.84%     63.20% |          23      4.98%     68.18% |          22      4.76%     72.94% |          30      6.49%     79.44% |          27      5.84%     85.28% |          33      7.14%     92.42% |          35      7.58%    100.00%
system.ruby.L2Cache_Controller.MCT_I.WB_Data::total          462                      
system.ruby.L2Cache_Controller.MCT_I.Ack_all |           2      6.06%      6.06% |           0      0.00%      6.06% |           0      0.00%      6.06% |           2      6.06%     12.12% |           3      9.09%     21.21% |           4     12.12%     33.33% |           4     12.12%     45.45% |           1      3.03%     48.48% |           1      3.03%     51.52% |           3      9.09%     60.61% |           0      0.00%     60.61% |           2      6.06%     66.67% |           4     12.12%     78.79% |           3      9.09%     87.88% |           3      9.09%     96.97% |           1      3.03%    100.00%
system.ruby.L2Cache_Controller.MCT_I.Ack_all::total           33                      
system.ruby.L2Cache_Controller.I_I.Ack_all |         539      6.02%      6.02% |         593      6.62%     12.63% |         608      6.79%     19.42% |         531      5.93%     25.35% |         562      6.27%     31.62% |         594      6.63%     38.25% |         568      6.34%     44.59% |         539      6.02%     50.60% |         612      6.83%     57.43% |         462      5.16%     62.59% |         501      5.59%     68.18% |         555      6.19%     74.37% |         536      5.98%     80.36% |         593      6.62%     86.98% |         620      6.92%     93.90% |         547      6.10%    100.00%
system.ruby.L2Cache_Controller.I_I.Ack_all::total         8960                      
system.ruby.L2Cache_Controller.S_I.Ack   |           2      4.88%      4.88% |           1      2.44%      7.32% |           0      0.00%      7.32% |           3      7.32%     14.63% |           2      4.88%     19.51% |           4      9.76%     29.27% |           1      2.44%     31.71% |           5     12.20%     43.90% |           3      7.32%     51.22% |           2      4.88%     56.10% |           5     12.20%     68.29% |           4      9.76%     78.05% |           4      9.76%     87.80% |           0      0.00%     87.80% |           0      0.00%     87.80% |           5     12.20%    100.00%
system.ruby.L2Cache_Controller.S_I.Ack::total           41                      
system.ruby.L2Cache_Controller.S_I.Ack_all |           2      4.88%      4.88% |           1      2.44%      7.32% |           0      0.00%      7.32% |           3      7.32%     14.63% |           2      4.88%     19.51% |           4      9.76%     29.27% |           1      2.44%     31.71% |           5     12.20%     43.90% |           3      7.32%     51.22% |           2      4.88%     56.10% |           5     12.20%     68.29% |           4      9.76%     78.05% |           4      9.76%     87.80% |           0      0.00%     87.80% |           0      0.00%     87.80% |           5     12.20%    100.00%
system.ruby.L2Cache_Controller.S_I.Ack_all::total           41                      
system.ruby.L2Cache_Controller.ISS.Mem_Data |       28903      6.26%      6.26% |       28648      6.21%     12.47% |       28424      6.16%     18.63% |       28877      6.26%     24.89% |       28557      6.19%     31.08% |       28798      6.24%     37.32% |       28832      6.25%     43.57% |       28885      6.26%     49.83% |       29007      6.29%     56.12% |       28759      6.23%     62.35% |       28860      6.25%     68.60% |       28928      6.27%     74.87% |       29092      6.30%     81.18% |       29079      6.30%     87.48% |       28889      6.26%     93.74% |       28882      6.26%    100.00%
system.ruby.L2Cache_Controller.ISS.Mem_Data::total       461420                      
system.ruby.L2Cache_Controller.IS.Mem_Data |        1354      6.40%      6.40% |        1351      6.38%     12.78% |        1486      7.02%     19.80% |        1284      6.07%     25.87% |        1347      6.36%     32.24% |        1343      6.35%     38.58% |        1274      6.02%     44.60% |        1286      6.08%     50.68% |        1365      6.45%     57.13% |        1159      5.48%     62.60% |        1247      5.89%     68.50% |        1272      6.01%     74.51% |        1230      5.81%     80.32% |        1307      6.18%     86.50% |        1511      7.14%     93.64% |        1347      6.36%    100.00%
system.ruby.L2Cache_Controller.IS.Mem_Data::total        21163                      
system.ruby.L2Cache_Controller.IM.Mem_Data |        9029      6.22%      6.22% |        9106      6.28%     12.50% |        9144      6.30%     18.80% |        9107      6.28%     25.08% |        9094      6.27%     31.34% |        9091      6.27%     37.61% |        9094      6.27%     43.87% |        9091      6.27%     50.14% |        9058      6.24%     56.38% |        9015      6.21%     62.59% |        9058      6.24%     68.84% |        9017      6.21%     75.05% |        9019      6.22%     81.27% |        9060      6.24%     87.51% |        9066      6.25%     93.76% |        9057      6.24%    100.00%
system.ruby.L2Cache_Controller.IM.Mem_Data::total       145106                      
system.ruby.L2Cache_Controller.SS_MB.Exclusive_Unblock |          42      3.94%      3.94% |          42      3.94%      7.87% |          70      6.56%     14.43% |          56      5.25%     19.68% |          56      5.25%     24.93% |          84      7.87%     32.80% |          84      7.87%     40.67% |          84      7.87%     48.55% |          82      7.69%     56.23% |          82      7.69%     63.92% |          79      7.40%     71.32% |          82      7.69%     79.01% |          70      6.56%     85.57% |          70      6.56%     92.13% |          42      3.94%     96.06% |          42      3.94%    100.00%
system.ruby.L2Cache_Controller.SS_MB.Exclusive_Unblock::total         1067                      
system.ruby.L2Cache_Controller.MT_MB.Exclusive_Unblock |       49187      6.23%      6.23% |       49226      6.24%     12.47% |       48932      6.20%     18.67% |       49414      6.26%     24.93% |       48799      6.18%     31.11% |       48798      6.18%     37.30% |       48931      6.20%     43.50% |       49329      6.25%     49.75% |       49300      6.25%     55.99% |       48871      6.19%     62.18% |       49200      6.23%     68.42% |       50025      6.34%     74.76% |       50956      6.46%     81.21% |       49850      6.32%     87.53% |       49640      6.29%     93.82% |       48780      6.18%    100.00%
system.ruby.L2Cache_Controller.MT_MB.Exclusive_Unblock::total       789238                      
system.ruby.L2Cache_Controller.MT_IIB.WB_Data |          70      4.04%      4.04% |          68      3.93%      7.97% |          98      5.66%     13.63% |          96      5.55%     19.18% |          94      5.43%     24.61% |         139      8.03%     32.64% |         138      7.97%     40.61% |         136      7.86%     48.47% |         134      7.74%     56.21% |         136      7.86%     64.07% |         129      7.45%     71.52% |         135      7.80%     79.32% |         108      6.24%     85.56% |         110      6.35%     91.91% |          70      4.04%     95.96% |          70      4.04%    100.00%
system.ruby.L2Cache_Controller.MT_IIB.WB_Data::total         1731                      
system.ruby.L2Cache_Controller.MT_IIB.Unblock |           0      0.00%      0.00% |           2      8.00%      8.00% |           0      0.00%      8.00% |           2      8.00%     16.00% |           4     16.00%     32.00% |           1      4.00%     36.00% |           2      8.00%     44.00% |           4     16.00%     60.00% |           2      8.00%     68.00% |           0      0.00%     68.00% |           1      4.00%     72.00% |           1      4.00%     76.00% |           4     16.00%     92.00% |           2      8.00%    100.00% |           0      0.00%    100.00% |           0      0.00%    100.00%
system.ruby.L2Cache_Controller.MT_IIB.Unblock::total           25                      
system.ruby.L2Cache_Controller.MT_IB.WB_Data |           0      0.00%      0.00% |           2      8.00%      8.00% |           0      0.00%      8.00% |           2      8.00%     16.00% |           4     16.00%     32.00% |           1      4.00%     36.00% |           2      8.00%     44.00% |           4     16.00%     60.00% |           2      8.00%     68.00% |           0      0.00%     68.00% |           1      4.00%     72.00% |           1      4.00%     76.00% |           4     16.00%     92.00% |           2      8.00%    100.00% |           0      0.00%    100.00% |           0      0.00%    100.00%
system.ruby.L2Cache_Controller.MT_IB.WB_Data::total           25                      
system.ruby.L2Cache_Controller.MT_SB.Unblock |          70      4.04%      4.04% |          68      3.93%      7.97% |          98      5.66%     13.63% |          96      5.55%     19.18% |          94      5.43%     24.61% |         139      8.03%     32.64% |         138      7.97%     40.61% |         136      7.86%     48.47% |         134      7.74%     56.21% |         136      7.86%     64.07% |         129      7.45%     71.52% |         135      7.80%     79.32% |         108      6.24%     85.56% |         110      6.35%     91.91% |          70      4.04%     95.96% |          70      4.04%    100.00%
system.ruby.L2Cache_Controller.MT_SB.Unblock::total         1731                      

---------- End Simulation Statistics   ----------
