
---------- Begin Simulation Statistics ----------
sim_seconds                                  0.015977                       # Number of seconds simulated
sim_ticks                                 15976666500                       # Number of ticks simulated
final_tick                                15976666500                       # Number of ticks from beginning of simulation (restored from checkpoints and never reset)
sim_freq                                 1000000000000                       # Frequency of simulated ticks
host_inst_rate                                  56146                       # Simulator instruction rate (inst/s)
host_op_rate                                    97409                       # Simulator op (including micro ops) rate (op/s)
host_tick_rate                               19533166                       # Simulator tick rate (ticks/s)
host_mem_usage                                2041164                       # Number of bytes of host memory used
host_seconds                                   817.93                       # Real time elapsed on the host
sim_insts                                    45923402                       # Number of instructions simulated
sim_ops                                      79673399                       # Number of ops (including micro ops) simulated
system.voltage_domain.voltage                       1                       # Voltage in Volts
system.clk_domain.clock                          1000                       # Clock period in ticks
system.mem_ctrls0.pwrStateResidencyTicks::UNDEFINED  15976666500                       # Cumulative time (in ticks) in various power states
system.mem_ctrls0.bytes_read::ruby.dir_cntrl0     10046656                       # Number of bytes read from this memory
system.mem_ctrls0.bytes_read::total          10046656                       # Number of bytes read from this memory
system.mem_ctrls0.bytes_written::ruby.dir_cntrl0      1023296                       # Number of bytes written to this memory
system.mem_ctrls0.bytes_written::total        1023296                       # Number of bytes written to this memory
system.mem_ctrls0.num_reads::ruby.dir_cntrl0       156979                       # Number of read requests responded to by this memory
system.mem_ctrls0.num_reads::total             156979                       # Number of read requests responded to by this memory
system.mem_ctrls0.num_writes::ruby.dir_cntrl0        15989                       # Number of write requests responded to by this memory
system.mem_ctrls0.num_writes::total             15989                       # Number of write requests responded to by this memory
system.mem_ctrls0.bw_read::ruby.dir_cntrl0    628833055                       # Total read bandwidth from this memory (bytes/s)
system.mem_ctrls0.bw_read::total            628833055                       # Total read bandwidth from this memory (bytes/s)
system.mem_ctrls0.bw_write::ruby.dir_cntrl0     64049406                       # Write bandwidth from this memory (bytes/s)
system.mem_ctrls0.bw_write::total            64049406                       # Write bandwidth from this memory (bytes/s)
system.mem_ctrls0.bw_total::ruby.dir_cntrl0    692882461                       # Total bandwidth to/from this memory (bytes/s)
system.mem_ctrls0.bw_total::total           692882461                       # Total bandwidth to/from this memory (bytes/s)
system.mem_ctrls0.readReqs                     156979                       # Number of read requests accepted
system.mem_ctrls0.avgNetLat                      0.00                       # Average network latency to DRAM controller
system.mem_ctrls0.writeReqs                     15989                       # Number of write requests accepted
system.mem_ctrls0.readBursts                   156979                       # Number of DRAM read bursts, including those serviced by the write queue
system.mem_ctrls0.writeBursts                   15989                       # Number of DRAM write bursts, including those merged in the write queue
system.mem_ctrls0.bytesReadDRAM              10046208                       # Total number of bytes read from DRAM
system.mem_ctrls0.bytesReadWrQ                    448                       # Total number of bytes read from write queue
system.mem_ctrls0.bytesWritten                1021952                       # Total number of bytes written to DRAM
system.mem_ctrls0.bytesReadSys               10046656                       # Total read bytes from the system interface side
system.mem_ctrls0.bytesWrittenSys             1023296                       # Total written bytes from the system interface side
system.mem_ctrls0.servicedByWrQ                     7                       # Number of DRAM read bursts serviced by the write queue
system.mem_ctrls0.mergedWrBursts                    0                       # Number of DRAM write bursts merged with an existing one
system.mem_ctrls0.neitherReadNorWriteReqs            0                       # Number of requests that are neither read nor write
system.mem_ctrls0.perBankRdBursts::0            10583                       # Per bank write bursts
system.mem_ctrls0.perBankRdBursts::1             9802                       # Per bank write bursts
system.mem_ctrls0.perBankRdBursts::2             9862                       # Per bank write bursts
system.mem_ctrls0.perBankRdBursts::3             9653                       # Per bank write bursts
system.mem_ctrls0.perBankRdBursts::4             9306                       # Per bank write bursts
system.mem_ctrls0.perBankRdBursts::5             9040                       # Per bank write bursts
system.mem_ctrls0.perBankRdBursts::6             9035                       # Per bank write bursts
system.mem_ctrls0.perBankRdBursts::7             9164                       # Per bank write bursts
system.mem_ctrls0.perBankRdBursts::8             9007                       # Per bank write bursts
system.mem_ctrls0.perBankRdBursts::9             9651                       # Per bank write bursts
system.mem_ctrls0.perBankRdBursts::10           10128                       # Per bank write bursts
system.mem_ctrls0.perBankRdBursts::11           10033                       # Per bank write bursts
system.mem_ctrls0.perBankRdBursts::12           10636                       # Per bank write bursts
system.mem_ctrls0.perBankRdBursts::13           10775                       # Per bank write bursts
system.mem_ctrls0.perBankRdBursts::14           10194                       # Per bank write bursts
system.mem_ctrls0.perBankRdBursts::15           10103                       # Per bank write bursts
system.mem_ctrls0.perBankWrBursts::0             1161                       # Per bank write bursts
system.mem_ctrls0.perBankWrBursts::1              942                       # Per bank write bursts
system.mem_ctrls0.perBankWrBursts::2             1062                       # Per bank write bursts
system.mem_ctrls0.perBankWrBursts::3              990                       # Per bank write bursts
system.mem_ctrls0.perBankWrBursts::4              880                       # Per bank write bursts
system.mem_ctrls0.perBankWrBursts::5              759                       # Per bank write bursts
system.mem_ctrls0.perBankWrBursts::6              833                       # Per bank write bursts
system.mem_ctrls0.perBankWrBursts::7              738                       # Per bank write bursts
system.mem_ctrls0.perBankWrBursts::8              728                       # Per bank write bursts
system.mem_ctrls0.perBankWrBursts::9              902                       # Per bank write bursts
system.mem_ctrls0.perBankWrBursts::10            1095                       # Per bank write bursts
system.mem_ctrls0.perBankWrBursts::11            1083                       # Per bank write bursts
system.mem_ctrls0.perBankWrBursts::12            1284                       # Per bank write bursts
system.mem_ctrls0.perBankWrBursts::13            1283                       # Per bank write bursts
system.mem_ctrls0.perBankWrBursts::14            1133                       # Per bank write bursts
system.mem_ctrls0.perBankWrBursts::15            1095                       # Per bank write bursts
system.mem_ctrls0.numRdRetry                        0                       # Number of times read queue was full causing retry
system.mem_ctrls0.numWrRetry                        0                       # Number of times write queue was full causing retry
system.mem_ctrls0.totGap                  15975676500                       # Total gap between requests
system.mem_ctrls0.readPktSize::0                    0                       # Read request sizes (log2)
system.mem_ctrls0.readPktSize::1                    0                       # Read request sizes (log2)
system.mem_ctrls0.readPktSize::2                    0                       # Read request sizes (log2)
system.mem_ctrls0.readPktSize::3                    0                       # Read request sizes (log2)
system.mem_ctrls0.readPktSize::4                    0                       # Read request sizes (log2)
system.mem_ctrls0.readPktSize::5                    0                       # Read request sizes (log2)
system.mem_ctrls0.readPktSize::6               156979                       # Read request sizes (log2)
system.mem_ctrls0.writePktSize::0                   0                       # Write request sizes (log2)
system.mem_ctrls0.writePktSize::1                   0                       # Write request sizes (log2)
system.mem_ctrls0.writePktSize::2                   0                       # Write request sizes (log2)
system.mem_ctrls0.writePktSize::3                   0                       # Write request sizes (log2)
system.mem_ctrls0.writePktSize::4                   0                       # Write request sizes (log2)
system.mem_ctrls0.writePktSize::5                   0                       # Write request sizes (log2)
system.mem_ctrls0.writePktSize::6               15989                       # Write request sizes (log2)
system.mem_ctrls0.rdQLenPdf::0                  77210                       # What read queue length does an incoming req see
system.mem_ctrls0.rdQLenPdf::1                  41640                       # What read queue length does an incoming req see
system.mem_ctrls0.rdQLenPdf::2                  21466                       # What read queue length does an incoming req see
system.mem_ctrls0.rdQLenPdf::3                  10097                       # What read queue length does an incoming req see
system.mem_ctrls0.rdQLenPdf::4                   4129                       # What read queue length does an incoming req see
system.mem_ctrls0.rdQLenPdf::5                   1606                       # What read queue length does an incoming req see
system.mem_ctrls0.rdQLenPdf::6                    549                       # What read queue length does an incoming req see
system.mem_ctrls0.rdQLenPdf::7                    195                       # What read queue length does an incoming req see
system.mem_ctrls0.rdQLenPdf::8                     57                       # What read queue length does an incoming req see
system.mem_ctrls0.rdQLenPdf::9                     19                       # What read queue length does an incoming req see
system.mem_ctrls0.rdQLenPdf::10                     3                       # What read queue length does an incoming req see
system.mem_ctrls0.rdQLenPdf::11                     1                       # What read queue length does an incoming req see
system.mem_ctrls0.rdQLenPdf::12                     0                       # What read queue length does an incoming req see
system.mem_ctrls0.rdQLenPdf::13                     0                       # What read queue length does an incoming req see
system.mem_ctrls0.rdQLenPdf::14                     0                       # What read queue length does an incoming req see
system.mem_ctrls0.rdQLenPdf::15                     0                       # What read queue length does an incoming req see
system.mem_ctrls0.rdQLenPdf::16                     0                       # What read queue length does an incoming req see
system.mem_ctrls0.rdQLenPdf::17                     0                       # What read queue length does an incoming req see
system.mem_ctrls0.rdQLenPdf::18                     0                       # What read queue length does an incoming req see
system.mem_ctrls0.rdQLenPdf::19                     0                       # What read queue length does an incoming req see
system.mem_ctrls0.rdQLenPdf::20                     0                       # What read queue length does an incoming req see
system.mem_ctrls0.rdQLenPdf::21                     0                       # What read queue length does an incoming req see
system.mem_ctrls0.rdQLenPdf::22                     0                       # What read queue length does an incoming req see
system.mem_ctrls0.rdQLenPdf::23                     0                       # What read queue length does an incoming req see
system.mem_ctrls0.rdQLenPdf::24                     0                       # What read queue length does an incoming req see
system.mem_ctrls0.rdQLenPdf::25                     0                       # What read queue length does an incoming req see
system.mem_ctrls0.rdQLenPdf::26                     0                       # What read queue length does an incoming req see
system.mem_ctrls0.rdQLenPdf::27                     0                       # What read queue length does an incoming req see
system.mem_ctrls0.rdQLenPdf::28                     0                       # What read queue length does an incoming req see
system.mem_ctrls0.rdQLenPdf::29                     0                       # What read queue length does an incoming req see
system.mem_ctrls0.rdQLenPdf::30                     0                       # What read queue length does an incoming req see
system.mem_ctrls0.rdQLenPdf::31                     0                       # What read queue length does an incoming req see
system.mem_ctrls0.wrQLenPdf::0                      1                       # What write queue length does an incoming req see
system.mem_ctrls0.wrQLenPdf::1                      1                       # What write queue length does an incoming req see
system.mem_ctrls0.wrQLenPdf::2                      1                       # What write queue length does an incoming req see
system.mem_ctrls0.wrQLenPdf::3                      1                       # What write queue length does an incoming req see
system.mem_ctrls0.wrQLenPdf::4                      1                       # What write queue length does an incoming req see
system.mem_ctrls0.wrQLenPdf::5                      1                       # What write queue length does an incoming req see
system.mem_ctrls0.wrQLenPdf::6                      1                       # What write queue length does an incoming req see
system.mem_ctrls0.wrQLenPdf::7                      1                       # What write queue length does an incoming req see
system.mem_ctrls0.wrQLenPdf::8                      1                       # What write queue length does an incoming req see
system.mem_ctrls0.wrQLenPdf::9                      1                       # What write queue length does an incoming req see
system.mem_ctrls0.wrQLenPdf::10                     1                       # What write queue length does an incoming req see
system.mem_ctrls0.wrQLenPdf::11                     1                       # What write queue length does an incoming req see
system.mem_ctrls0.wrQLenPdf::12                     1                       # What write queue length does an incoming req see
system.mem_ctrls0.wrQLenPdf::13                     1                       # What write queue length does an incoming req see
system.mem_ctrls0.wrQLenPdf::14                     1                       # What write queue length does an incoming req see
system.mem_ctrls0.wrQLenPdf::15                   295                       # What write queue length does an incoming req see
system.mem_ctrls0.wrQLenPdf::16                   338                       # What write queue length does an incoming req see
system.mem_ctrls0.wrQLenPdf::17                   685                       # What write queue length does an incoming req see
system.mem_ctrls0.wrQLenPdf::18                   928                       # What write queue length does an incoming req see
system.mem_ctrls0.wrQLenPdf::19                   980                       # What write queue length does an incoming req see
system.mem_ctrls0.wrQLenPdf::20                   984                       # What write queue length does an incoming req see
system.mem_ctrls0.wrQLenPdf::21                   986                       # What write queue length does an incoming req see
system.mem_ctrls0.wrQLenPdf::22                   980                       # What write queue length does an incoming req see
system.mem_ctrls0.wrQLenPdf::23                   979                       # What write queue length does an incoming req see
system.mem_ctrls0.wrQLenPdf::24                   978                       # What write queue length does an incoming req see
system.mem_ctrls0.wrQLenPdf::25                   985                       # What write queue length does an incoming req see
system.mem_ctrls0.wrQLenPdf::26                   977                       # What write queue length does an incoming req see
system.mem_ctrls0.wrQLenPdf::27                   978                       # What write queue length does an incoming req see
system.mem_ctrls0.wrQLenPdf::28                   972                       # What write queue length does an incoming req see
system.mem_ctrls0.wrQLenPdf::29                   972                       # What write queue length does an incoming req see
system.mem_ctrls0.wrQLenPdf::30                   983                       # What write queue length does an incoming req see
system.mem_ctrls0.wrQLenPdf::31                   968                       # What write queue length does an incoming req see
system.mem_ctrls0.wrQLenPdf::32                   971                       # What write queue length does an incoming req see
system.mem_ctrls0.wrQLenPdf::33                    32                       # What write queue length does an incoming req see
system.mem_ctrls0.wrQLenPdf::34                     2                       # What write queue length does an incoming req see
system.mem_ctrls0.wrQLenPdf::35                     1                       # What write queue length does an incoming req see
system.mem_ctrls0.wrQLenPdf::36                     0                       # What write queue length does an incoming req see
system.mem_ctrls0.wrQLenPdf::37                     0                       # What write queue length does an incoming req see
system.mem_ctrls0.wrQLenPdf::38                     0                       # What write queue length does an incoming req see
system.mem_ctrls0.wrQLenPdf::39                     0                       # What write queue length does an incoming req see
system.mem_ctrls0.wrQLenPdf::40                     0                       # What write queue length does an incoming req see
system.mem_ctrls0.wrQLenPdf::41                     0                       # What write queue length does an incoming req see
system.mem_ctrls0.wrQLenPdf::42                     0                       # What write queue length does an incoming req see
system.mem_ctrls0.wrQLenPdf::43                     0                       # What write queue length does an incoming req see
system.mem_ctrls0.wrQLenPdf::44                     0                       # What write queue length does an incoming req see
system.mem_ctrls0.wrQLenPdf::45                     0                       # What write queue length does an incoming req see
system.mem_ctrls0.wrQLenPdf::46                     0                       # What write queue length does an incoming req see
system.mem_ctrls0.wrQLenPdf::47                     0                       # What write queue length does an incoming req see
system.mem_ctrls0.wrQLenPdf::48                     0                       # What write queue length does an incoming req see
system.mem_ctrls0.wrQLenPdf::49                     0                       # What write queue length does an incoming req see
system.mem_ctrls0.wrQLenPdf::50                     0                       # What write queue length does an incoming req see
system.mem_ctrls0.wrQLenPdf::51                     0                       # What write queue length does an incoming req see
system.mem_ctrls0.wrQLenPdf::52                     0                       # What write queue length does an incoming req see
system.mem_ctrls0.wrQLenPdf::53                     0                       # What write queue length does an incoming req see
system.mem_ctrls0.wrQLenPdf::54                     0                       # What write queue length does an incoming req see
system.mem_ctrls0.wrQLenPdf::55                     0                       # What write queue length does an incoming req see
system.mem_ctrls0.wrQLenPdf::56                     0                       # What write queue length does an incoming req see
system.mem_ctrls0.wrQLenPdf::57                     0                       # What write queue length does an incoming req see
system.mem_ctrls0.wrQLenPdf::58                     0                       # What write queue length does an incoming req see
system.mem_ctrls0.wrQLenPdf::59                     0                       # What write queue length does an incoming req see
system.mem_ctrls0.wrQLenPdf::60                     0                       # What write queue length does an incoming req see
system.mem_ctrls0.wrQLenPdf::61                     0                       # What write queue length does an incoming req see
system.mem_ctrls0.wrQLenPdf::62                     0                       # What write queue length does an incoming req see
system.mem_ctrls0.wrQLenPdf::63                     0                       # What write queue length does an incoming req see
system.mem_ctrls0.bytesPerActivate::samples        99594                       # Bytes accessed per row activation
system.mem_ctrls0.bytesPerActivate::mean   111.123803                       # Bytes accessed per row activation
system.mem_ctrls0.bytesPerActivate::gmean    86.558587                       # Bytes accessed per row activation
system.mem_ctrls0.bytesPerActivate::stdev   121.285427                       # Bytes accessed per row activation
system.mem_ctrls0.bytesPerActivate::0-127        72934     73.23%     73.23% # Bytes accessed per row activation
system.mem_ctrls0.bytesPerActivate::128-255        17391     17.46%     90.69% # Bytes accessed per row activation
system.mem_ctrls0.bytesPerActivate::256-383         3952      3.97%     94.66% # Bytes accessed per row activation
system.mem_ctrls0.bytesPerActivate::384-511         2222      2.23%     96.89% # Bytes accessed per row activation
system.mem_ctrls0.bytesPerActivate::512-639         1405      1.41%     98.30% # Bytes accessed per row activation
system.mem_ctrls0.bytesPerActivate::640-767         1044      1.05%     99.35% # Bytes accessed per row activation
system.mem_ctrls0.bytesPerActivate::768-895          233      0.23%     99.59% # Bytes accessed per row activation
system.mem_ctrls0.bytesPerActivate::896-1023          207      0.21%     99.79% # Bytes accessed per row activation
system.mem_ctrls0.bytesPerActivate::1024-1151          206      0.21%    100.00% # Bytes accessed per row activation
system.mem_ctrls0.bytesPerActivate::total        99594                       # Bytes accessed per row activation
system.mem_ctrls0.rdPerTurnAround::samples          957                       # Reads before turning the bus around for writes
system.mem_ctrls0.rdPerTurnAround::mean    164.018809                       # Reads before turning the bus around for writes
system.mem_ctrls0.rdPerTurnAround::gmean    54.976779                       # Reads before turning the bus around for writes
system.mem_ctrls0.rdPerTurnAround::stdev  2127.139621                       # Reads before turning the bus around for writes
system.mem_ctrls0.rdPerTurnAround::0-4095          956     99.90%     99.90% # Reads before turning the bus around for writes
system.mem_ctrls0.rdPerTurnAround::65536-69631            1      0.10%    100.00% # Reads before turning the bus around for writes
system.mem_ctrls0.rdPerTurnAround::total          957                       # Reads before turning the bus around for writes
system.mem_ctrls0.wrPerTurnAround::samples          957                       # Writes before turning the bus around for reads
system.mem_ctrls0.wrPerTurnAround::mean     16.685475                       # Writes before turning the bus around for reads
system.mem_ctrls0.wrPerTurnAround::gmean    16.659816                       # Writes before turning the bus around for reads
system.mem_ctrls0.wrPerTurnAround::stdev     0.937552                       # Writes before turning the bus around for reads
system.mem_ctrls0.wrPerTurnAround::16             612     63.95%     63.95% # Writes before turning the bus around for reads
system.mem_ctrls0.wrPerTurnAround::17              40      4.18%     68.13% # Writes before turning the bus around for reads
system.mem_ctrls0.wrPerTurnAround::18             299     31.24%     99.37% # Writes before turning the bus around for reads
system.mem_ctrls0.wrPerTurnAround::19               6      0.63%    100.00% # Writes before turning the bus around for reads
system.mem_ctrls0.wrPerTurnAround::total          957                       # Writes before turning the bus around for reads
system.mem_ctrls0.totQLat                  4815968750                       # Total ticks spent queuing
system.mem_ctrls0.totMemAccLat             7759193750                       # Total ticks spent from burst creation until serviced by the DRAM
system.mem_ctrls0.totBusLat                 784860000                       # Total ticks spent in databus transfers
system.mem_ctrls0.avgQLat                    30680.43                       # Average queueing delay per DRAM burst
system.mem_ctrls0.avgBusLat                   5000.00                       # Average bus latency per DRAM burst
system.mem_ctrls0.avgMemAccLat               49430.43                       # Average memory access latency per DRAM burst
system.mem_ctrls0.avgRdBW                      628.81                       # Average DRAM read bandwidth in MiByte/s
system.mem_ctrls0.avgWrBW                       63.97                       # Average achieved write bandwidth in MiByte/s
system.mem_ctrls0.avgRdBWSys                   628.83                       # Average system read bandwidth in MiByte/s
system.mem_ctrls0.avgWrBWSys                    64.05                       # Average system write bandwidth in MiByte/s
system.mem_ctrls0.peakBW                     12800.00                       # Theoretical peak bandwidth in MiByte/s
system.mem_ctrls0.busUtil                        5.41                       # Data bus utilization in percentage
system.mem_ctrls0.busUtilRead                    4.91                       # Data bus utilization in percentage for reads
system.mem_ctrls0.busUtilWrite                   0.50                       # Data bus utilization in percentage for writes
system.mem_ctrls0.avgRdQLen                      1.57                       # Average read queue length when enqueuing
system.mem_ctrls0.avgWrQLen                     12.97                       # Average write queue length when enqueuing
system.mem_ctrls0.readRowHits                   69547                       # Number of row buffer hits during reads
system.mem_ctrls0.writeRowHits                   3789                       # Number of row buffer hits during writes
system.mem_ctrls0.readRowHitRate                44.31                       # Row buffer hit rate for reads
system.mem_ctrls0.writeRowHitRate               23.70                       # Row buffer hit rate for writes
system.mem_ctrls0.avgGap                     92362.04                       # Average gap between requests
system.mem_ctrls0.pageHitRate                   42.40                       # Row buffer hit rate, read and write combined
system.mem_ctrls0_0.actEnergy               340378080                       # Energy for activate commands per rank (pJ)
system.mem_ctrls0_0.preEnergy               180900060                       # Energy for precharge commands per rank (pJ)
system.mem_ctrls0_0.readEnergy              545817300                       # Energy for read commands per rank (pJ)
system.mem_ctrls0_0.writeEnergy              38445300                       # Energy for write commands per rank (pJ)
system.mem_ctrls0_0.refreshEnergy        1243416720.000000                       # Energy for refresh commands per rank (pJ)
system.mem_ctrls0_0.actBackEnergy          1457506530                       # Energy for active background per rank (pJ)
system.mem_ctrls0_0.preBackEnergy            32839200                       # Energy for precharge background per rank (pJ)
system.mem_ctrls0_0.actPowerDownEnergy     5272576380                       # Energy for active power-down per rank (pJ)
system.mem_ctrls0_0.prePowerDownEnergy      295122240                       # Energy for precharge power-down per rank (pJ)
system.mem_ctrls0_0.selfRefreshEnergy        98378610                       # Energy for self refresh per rank (pJ)
system.mem_ctrls0_0.totalEnergy            9505526070                       # Total energy per rank (pJ)
system.mem_ctrls0_0.averagePower           594.963003                       # Core power per rank (mW)
system.mem_ctrls0_0.totalIdleTime         12694043000                       # Total Idle time Per DRAM Rank
system.mem_ctrls0_0.memoryStateTime::IDLE     15323250                       # Time in different power states
system.mem_ctrls0_0.memoryStateTime::REF    526124000                       # Time in different power states
system.mem_ctrls0_0.memoryStateTime::SREF    363327500                       # Time in different power states
system.mem_ctrls0_0.memoryStateTime::PRE_PDN    768591000                       # Time in different power states
system.mem_ctrls0_0.memoryStateTime::ACT   2740303500                       # Time in different power states
system.mem_ctrls0_0.memoryStateTime::ACT_PDN  11562997250                       # Time in different power states
system.mem_ctrls0_1.actEnergy               370794480                       # Energy for activate commands per rank (pJ)
system.mem_ctrls0_1.preEnergy               197059170                       # Energy for precharge commands per rank (pJ)
system.mem_ctrls0_1.readEnergy              574962780                       # Energy for read commands per rank (pJ)
system.mem_ctrls0_1.writeEnergy              44907660                       # Energy for write commands per rank (pJ)
system.mem_ctrls0_1.refreshEnergy        1242187440.000000                       # Energy for refresh commands per rank (pJ)
system.mem_ctrls0_1.actBackEnergy          1525728120                       # Energy for active background per rank (pJ)
system.mem_ctrls0_1.preBackEnergy            32096640                       # Energy for precharge background per rank (pJ)
system.mem_ctrls0_1.actPowerDownEnergy     5197277670                       # Energy for active power-down per rank (pJ)
system.mem_ctrls0_1.prePowerDownEnergy      272736480                       # Energy for precharge power-down per rank (pJ)
system.mem_ctrls0_1.selfRefreshEnergy       120976530                       # Energy for self refresh per rank (pJ)
system.mem_ctrls0_1.totalEnergy            9578871600                       # Total energy per rank (pJ)
system.mem_ctrls0_1.averagePower           599.553793                       # Core power per rank (mW)
system.mem_ctrls0_1.totalIdleTime         12545216250                       # Total Idle time Per DRAM Rank
system.mem_ctrls0_1.memoryStateTime::IDLE     17741250                       # Time in different power states
system.mem_ctrls0_1.memoryStateTime::REF    525670000                       # Time in different power states
system.mem_ctrls0_1.memoryStateTime::SREF    439072250                       # Time in different power states
system.mem_ctrls0_1.memoryStateTime::PRE_PDN    710176750                       # Time in different power states
system.mem_ctrls0_1.memoryStateTime::ACT   2886475250                       # Time in different power states
system.mem_ctrls0_1.memoryStateTime::ACT_PDN  11397531000                       # Time in different power states
system.mem_ctrls1.pwrStateResidencyTicks::UNDEFINED  15976666500                       # Cumulative time (in ticks) in various power states
system.mem_ctrls1.bytes_read::ruby.dir_cntrl1     10021952                       # Number of bytes read from this memory
system.mem_ctrls1.bytes_read::total          10021952                       # Number of bytes read from this memory
system.mem_ctrls1.bytes_written::ruby.dir_cntrl1      1023744                       # Number of bytes written to this memory
system.mem_ctrls1.bytes_written::total        1023744                       # Number of bytes written to this memory
system.mem_ctrls1.num_reads::ruby.dir_cntrl1       156593                       # Number of read requests responded to by this memory
system.mem_ctrls1.num_reads::total             156593                       # Number of read requests responded to by this memory
system.mem_ctrls1.num_writes::ruby.dir_cntrl1        15996                       # Number of write requests responded to by this memory
system.mem_ctrls1.num_writes::total             15996                       # Number of write requests responded to by this memory
system.mem_ctrls1.bw_read::ruby.dir_cntrl1    627286800                       # Total read bandwidth from this memory (bytes/s)
system.mem_ctrls1.bw_read::total            627286800                       # Total read bandwidth from this memory (bytes/s)
system.mem_ctrls1.bw_write::ruby.dir_cntrl1     64077447                       # Write bandwidth from this memory (bytes/s)
system.mem_ctrls1.bw_write::total            64077447                       # Write bandwidth from this memory (bytes/s)
system.mem_ctrls1.bw_total::ruby.dir_cntrl1    691364247                       # Total bandwidth to/from this memory (bytes/s)
system.mem_ctrls1.bw_total::total           691364247                       # Total bandwidth to/from this memory (bytes/s)
system.mem_ctrls1.readReqs                     156593                       # Number of read requests accepted
system.mem_ctrls1.avgNetLat                      0.00                       # Average network latency to DRAM controller
system.mem_ctrls1.writeReqs                     15996                       # Number of write requests accepted
system.mem_ctrls1.readBursts                   156593                       # Number of DRAM read bursts, including those serviced by the write queue
system.mem_ctrls1.writeBursts                   15996                       # Number of DRAM write bursts, including those merged in the write queue
system.mem_ctrls1.bytesReadDRAM              10021440                       # Total number of bytes read from DRAM
system.mem_ctrls1.bytesReadWrQ                    512                       # Total number of bytes read from write queue
system.mem_ctrls1.bytesWritten                1022144                       # Total number of bytes written to DRAM
system.mem_ctrls1.bytesReadSys               10021952                       # Total read bytes from the system interface side
system.mem_ctrls1.bytesWrittenSys             1023744                       # Total written bytes from the system interface side
system.mem_ctrls1.servicedByWrQ                     8                       # Number of DRAM read bursts serviced by the write queue
system.mem_ctrls1.mergedWrBursts                    0                       # Number of DRAM write bursts merged with an existing one
system.mem_ctrls1.neitherReadNorWriteReqs            0                       # Number of requests that are neither read nor write
system.mem_ctrls1.perBankRdBursts::0            10490                       # Per bank write bursts
system.mem_ctrls1.perBankRdBursts::1             9764                       # Per bank write bursts
system.mem_ctrls1.perBankRdBursts::2             9830                       # Per bank write bursts
system.mem_ctrls1.perBankRdBursts::3             9628                       # Per bank write bursts
system.mem_ctrls1.perBankRdBursts::4             9233                       # Per bank write bursts
system.mem_ctrls1.perBankRdBursts::5             9052                       # Per bank write bursts
system.mem_ctrls1.perBankRdBursts::6             8998                       # Per bank write bursts
system.mem_ctrls1.perBankRdBursts::7             9125                       # Per bank write bursts
system.mem_ctrls1.perBankRdBursts::8             9011                       # Per bank write bursts
system.mem_ctrls1.perBankRdBursts::9             9633                       # Per bank write bursts
system.mem_ctrls1.perBankRdBursts::10           10172                       # Per bank write bursts
system.mem_ctrls1.perBankRdBursts::11           10019                       # Per bank write bursts
system.mem_ctrls1.perBankRdBursts::12           10614                       # Per bank write bursts
system.mem_ctrls1.perBankRdBursts::13           10758                       # Per bank write bursts
system.mem_ctrls1.perBankRdBursts::14           10217                       # Per bank write bursts
system.mem_ctrls1.perBankRdBursts::15           10041                       # Per bank write bursts
system.mem_ctrls1.perBankWrBursts::0             1108                       # Per bank write bursts
system.mem_ctrls1.perBankWrBursts::1              921                       # Per bank write bursts
system.mem_ctrls1.perBankWrBursts::2             1078                       # Per bank write bursts
system.mem_ctrls1.perBankWrBursts::3              990                       # Per bank write bursts
system.mem_ctrls1.perBankWrBursts::4              861                       # Per bank write bursts
system.mem_ctrls1.perBankWrBursts::5              774                       # Per bank write bursts
system.mem_ctrls1.perBankWrBursts::6              793                       # Per bank write bursts
system.mem_ctrls1.perBankWrBursts::7              751                       # Per bank write bursts
system.mem_ctrls1.perBankWrBursts::8              741                       # Per bank write bursts
system.mem_ctrls1.perBankWrBursts::9              910                       # Per bank write bursts
system.mem_ctrls1.perBankWrBursts::10            1128                       # Per bank write bursts
system.mem_ctrls1.perBankWrBursts::11            1068                       # Per bank write bursts
system.mem_ctrls1.perBankWrBursts::12            1313                       # Per bank write bursts
system.mem_ctrls1.perBankWrBursts::13            1309                       # Per bank write bursts
system.mem_ctrls1.perBankWrBursts::14            1142                       # Per bank write bursts
system.mem_ctrls1.perBankWrBursts::15            1084                       # Per bank write bursts
system.mem_ctrls1.numRdRetry                        0                       # Number of times read queue was full causing retry
system.mem_ctrls1.numWrRetry                        0                       # Number of times write queue was full causing retry
system.mem_ctrls1.totGap                  15976085500                       # Total gap between requests
system.mem_ctrls1.readPktSize::0                    0                       # Read request sizes (log2)
system.mem_ctrls1.readPktSize::1                    0                       # Read request sizes (log2)
system.mem_ctrls1.readPktSize::2                    0                       # Read request sizes (log2)
system.mem_ctrls1.readPktSize::3                    0                       # Read request sizes (log2)
system.mem_ctrls1.readPktSize::4                    0                       # Read request sizes (log2)
system.mem_ctrls1.readPktSize::5                    0                       # Read request sizes (log2)
system.mem_ctrls1.readPktSize::6               156593                       # Read request sizes (log2)
system.mem_ctrls1.writePktSize::0                   0                       # Write request sizes (log2)
system.mem_ctrls1.writePktSize::1                   0                       # Write request sizes (log2)
system.mem_ctrls1.writePktSize::2                   0                       # Write request sizes (log2)
system.mem_ctrls1.writePktSize::3                   0                       # Write request sizes (log2)
system.mem_ctrls1.writePktSize::4                   0                       # Write request sizes (log2)
system.mem_ctrls1.writePktSize::5                   0                       # Write request sizes (log2)
system.mem_ctrls1.writePktSize::6               15996                       # Write request sizes (log2)
system.mem_ctrls1.rdQLenPdf::0                  77227                       # What read queue length does an incoming req see
system.mem_ctrls1.rdQLenPdf::1                  41733                       # What read queue length does an incoming req see
system.mem_ctrls1.rdQLenPdf::2                  21367                       # What read queue length does an incoming req see
system.mem_ctrls1.rdQLenPdf::3                   9973                       # What read queue length does an incoming req see
system.mem_ctrls1.rdQLenPdf::4                   4033                       # What read queue length does an incoming req see
system.mem_ctrls1.rdQLenPdf::5                   1480                       # What read queue length does an incoming req see
system.mem_ctrls1.rdQLenPdf::6                    500                       # What read queue length does an incoming req see
system.mem_ctrls1.rdQLenPdf::7                    194                       # What read queue length does an incoming req see
system.mem_ctrls1.rdQLenPdf::8                     64                       # What read queue length does an incoming req see
system.mem_ctrls1.rdQLenPdf::9                     12                       # What read queue length does an incoming req see
system.mem_ctrls1.rdQLenPdf::10                     2                       # What read queue length does an incoming req see
system.mem_ctrls1.rdQLenPdf::11                     0                       # What read queue length does an incoming req see
system.mem_ctrls1.rdQLenPdf::12                     0                       # What read queue length does an incoming req see
system.mem_ctrls1.rdQLenPdf::13                     0                       # What read queue length does an incoming req see
system.mem_ctrls1.rdQLenPdf::14                     0                       # What read queue length does an incoming req see
system.mem_ctrls1.rdQLenPdf::15                     0                       # What read queue length does an incoming req see
system.mem_ctrls1.rdQLenPdf::16                     0                       # What read queue length does an incoming req see
system.mem_ctrls1.rdQLenPdf::17                     0                       # What read queue length does an incoming req see
system.mem_ctrls1.rdQLenPdf::18                     0                       # What read queue length does an incoming req see
system.mem_ctrls1.rdQLenPdf::19                     0                       # What read queue length does an incoming req see
system.mem_ctrls1.rdQLenPdf::20                     0                       # What read queue length does an incoming req see
system.mem_ctrls1.rdQLenPdf::21                     0                       # What read queue length does an incoming req see
system.mem_ctrls1.rdQLenPdf::22                     0                       # What read queue length does an incoming req see
system.mem_ctrls1.rdQLenPdf::23                     0                       # What read queue length does an incoming req see
system.mem_ctrls1.rdQLenPdf::24                     0                       # What read queue length does an incoming req see
system.mem_ctrls1.rdQLenPdf::25                     0                       # What read queue length does an incoming req see
system.mem_ctrls1.rdQLenPdf::26                     0                       # What read queue length does an incoming req see
system.mem_ctrls1.rdQLenPdf::27                     0                       # What read queue length does an incoming req see
system.mem_ctrls1.rdQLenPdf::28                     0                       # What read queue length does an incoming req see
system.mem_ctrls1.rdQLenPdf::29                     0                       # What read queue length does an incoming req see
system.mem_ctrls1.rdQLenPdf::30                     0                       # What read queue length does an incoming req see
system.mem_ctrls1.rdQLenPdf::31                     0                       # What read queue length does an incoming req see
system.mem_ctrls1.wrQLenPdf::0                      1                       # What write queue length does an incoming req see
system.mem_ctrls1.wrQLenPdf::1                      1                       # What write queue length does an incoming req see
system.mem_ctrls1.wrQLenPdf::2                      1                       # What write queue length does an incoming req see
system.mem_ctrls1.wrQLenPdf::3                      1                       # What write queue length does an incoming req see
system.mem_ctrls1.wrQLenPdf::4                      1                       # What write queue length does an incoming req see
system.mem_ctrls1.wrQLenPdf::5                      1                       # What write queue length does an incoming req see
system.mem_ctrls1.wrQLenPdf::6                      1                       # What write queue length does an incoming req see
system.mem_ctrls1.wrQLenPdf::7                      1                       # What write queue length does an incoming req see
system.mem_ctrls1.wrQLenPdf::8                      1                       # What write queue length does an incoming req see
system.mem_ctrls1.wrQLenPdf::9                      1                       # What write queue length does an incoming req see
system.mem_ctrls1.wrQLenPdf::10                     1                       # What write queue length does an incoming req see
system.mem_ctrls1.wrQLenPdf::11                     1                       # What write queue length does an incoming req see
system.mem_ctrls1.wrQLenPdf::12                     1                       # What write queue length does an incoming req see
system.mem_ctrls1.wrQLenPdf::13                     1                       # What write queue length does an incoming req see
system.mem_ctrls1.wrQLenPdf::14                     1                       # What write queue length does an incoming req see
system.mem_ctrls1.wrQLenPdf::15                   295                       # What write queue length does an incoming req see
system.mem_ctrls1.wrQLenPdf::16                   329                       # What write queue length does an incoming req see
system.mem_ctrls1.wrQLenPdf::17                   681                       # What write queue length does an incoming req see
system.mem_ctrls1.wrQLenPdf::18                   951                       # What write queue length does an incoming req see
system.mem_ctrls1.wrQLenPdf::19                   987                       # What write queue length does an incoming req see
system.mem_ctrls1.wrQLenPdf::20                   991                       # What write queue length does an incoming req see
system.mem_ctrls1.wrQLenPdf::21                   989                       # What write queue length does an incoming req see
system.mem_ctrls1.wrQLenPdf::22                   980                       # What write queue length does an incoming req see
system.mem_ctrls1.wrQLenPdf::23                   973                       # What write queue length does an incoming req see
system.mem_ctrls1.wrQLenPdf::24                   978                       # What write queue length does an incoming req see
system.mem_ctrls1.wrQLenPdf::25                   971                       # What write queue length does an incoming req see
system.mem_ctrls1.wrQLenPdf::26                   978                       # What write queue length does an incoming req see
system.mem_ctrls1.wrQLenPdf::27                   975                       # What write queue length does an incoming req see
system.mem_ctrls1.wrQLenPdf::28                   975                       # What write queue length does an incoming req see
system.mem_ctrls1.wrQLenPdf::29                   982                       # What write queue length does an incoming req see
system.mem_ctrls1.wrQLenPdf::30                   978                       # What write queue length does an incoming req see
system.mem_ctrls1.wrQLenPdf::31                   968                       # What write queue length does an incoming req see
system.mem_ctrls1.wrQLenPdf::32                   974                       # What write queue length does an incoming req see
system.mem_ctrls1.wrQLenPdf::33                    19                       # What write queue length does an incoming req see
system.mem_ctrls1.wrQLenPdf::34                     4                       # What write queue length does an incoming req see
system.mem_ctrls1.wrQLenPdf::35                     2                       # What write queue length does an incoming req see
system.mem_ctrls1.wrQLenPdf::36                     1                       # What write queue length does an incoming req see
system.mem_ctrls1.wrQLenPdf::37                     0                       # What write queue length does an incoming req see
system.mem_ctrls1.wrQLenPdf::38                     0                       # What write queue length does an incoming req see
system.mem_ctrls1.wrQLenPdf::39                     0                       # What write queue length does an incoming req see
system.mem_ctrls1.wrQLenPdf::40                     0                       # What write queue length does an incoming req see
system.mem_ctrls1.wrQLenPdf::41                     0                       # What write queue length does an incoming req see
system.mem_ctrls1.wrQLenPdf::42                     0                       # What write queue length does an incoming req see
system.mem_ctrls1.wrQLenPdf::43                     0                       # What write queue length does an incoming req see
system.mem_ctrls1.wrQLenPdf::44                     0                       # What write queue length does an incoming req see
system.mem_ctrls1.wrQLenPdf::45                     0                       # What write queue length does an incoming req see
system.mem_ctrls1.wrQLenPdf::46                     0                       # What write queue length does an incoming req see
system.mem_ctrls1.wrQLenPdf::47                     0                       # What write queue length does an incoming req see
system.mem_ctrls1.wrQLenPdf::48                     0                       # What write queue length does an incoming req see
system.mem_ctrls1.wrQLenPdf::49                     0                       # What write queue length does an incoming req see
system.mem_ctrls1.wrQLenPdf::50                     0                       # What write queue length does an incoming req see
system.mem_ctrls1.wrQLenPdf::51                     0                       # What write queue length does an incoming req see
system.mem_ctrls1.wrQLenPdf::52                     0                       # What write queue length does an incoming req see
system.mem_ctrls1.wrQLenPdf::53                     0                       # What write queue length does an incoming req see
system.mem_ctrls1.wrQLenPdf::54                     0                       # What write queue length does an incoming req see
system.mem_ctrls1.wrQLenPdf::55                     0                       # What write queue length does an incoming req see
system.mem_ctrls1.wrQLenPdf::56                     0                       # What write queue length does an incoming req see
system.mem_ctrls1.wrQLenPdf::57                     0                       # What write queue length does an incoming req see
system.mem_ctrls1.wrQLenPdf::58                     0                       # What write queue length does an incoming req see
system.mem_ctrls1.wrQLenPdf::59                     0                       # What write queue length does an incoming req see
system.mem_ctrls1.wrQLenPdf::60                     0                       # What write queue length does an incoming req see
system.mem_ctrls1.wrQLenPdf::61                     0                       # What write queue length does an incoming req see
system.mem_ctrls1.wrQLenPdf::62                     0                       # What write queue length does an incoming req see
system.mem_ctrls1.wrQLenPdf::63                     0                       # What write queue length does an incoming req see
system.mem_ctrls1.bytesPerActivate::samples        98848                       # Bytes accessed per row activation
system.mem_ctrls1.bytesPerActivate::mean   111.717061                       # Bytes accessed per row activation
system.mem_ctrls1.bytesPerActivate::gmean    86.952373                       # Bytes accessed per row activation
system.mem_ctrls1.bytesPerActivate::stdev   122.042011                       # Bytes accessed per row activation
system.mem_ctrls1.bytesPerActivate::0-127        71821     72.66%     72.66% # Bytes accessed per row activation
system.mem_ctrls1.bytesPerActivate::128-255        17795     18.00%     90.66% # Bytes accessed per row activation
system.mem_ctrls1.bytesPerActivate::256-383         3938      3.98%     94.64% # Bytes accessed per row activation
system.mem_ctrls1.bytesPerActivate::384-511         2179      2.20%     96.85% # Bytes accessed per row activation
system.mem_ctrls1.bytesPerActivate::512-639         1375      1.39%     98.24% # Bytes accessed per row activation
system.mem_ctrls1.bytesPerActivate::640-767         1060      1.07%     99.31% # Bytes accessed per row activation
system.mem_ctrls1.bytesPerActivate::768-895          272      0.28%     99.59% # Bytes accessed per row activation
system.mem_ctrls1.bytesPerActivate::896-1023          186      0.19%     99.78% # Bytes accessed per row activation
system.mem_ctrls1.bytesPerActivate::1024-1151          222      0.22%    100.00% # Bytes accessed per row activation
system.mem_ctrls1.bytesPerActivate::total        98848                       # Bytes accessed per row activation
system.mem_ctrls1.rdPerTurnAround::samples          958                       # Reads before turning the bus around for writes
system.mem_ctrls1.rdPerTurnAround::mean    163.430063                       # Reads before turning the bus around for writes
system.mem_ctrls1.rdPerTurnAround::gmean    54.684929                       # Reads before turning the bus around for writes
system.mem_ctrls1.rdPerTurnAround::stdev  2150.331792                       # Reads before turning the bus around for writes
system.mem_ctrls1.rdPerTurnAround::0-4095          957     99.90%     99.90% # Reads before turning the bus around for writes
system.mem_ctrls1.rdPerTurnAround::65536-69631            1      0.10%    100.00% # Reads before turning the bus around for writes
system.mem_ctrls1.rdPerTurnAround::total          958                       # Reads before turning the bus around for writes
system.mem_ctrls1.wrPerTurnAround::samples          958                       # Writes before turning the bus around for reads
system.mem_ctrls1.wrPerTurnAround::mean     16.671190                       # Writes before turning the bus around for reads
system.mem_ctrls1.wrPerTurnAround::gmean    16.644945                       # Writes before turning the bus around for reads
system.mem_ctrls1.wrPerTurnAround::stdev     0.949853                       # Writes before turning the bus around for reads
system.mem_ctrls1.wrPerTurnAround::16             627     65.45%     65.45% # Writes before turning the bus around for reads
system.mem_ctrls1.wrPerTurnAround::17              30      3.13%     68.58% # Writes before turning the bus around for reads
system.mem_ctrls1.wrPerTurnAround::18             292     30.48%     99.06% # Writes before turning the bus around for reads
system.mem_ctrls1.wrPerTurnAround::19               8      0.84%     99.90% # Writes before turning the bus around for reads
system.mem_ctrls1.wrPerTurnAround::21               1      0.10%    100.00% # Writes before turning the bus around for reads
system.mem_ctrls1.wrPerTurnAround::total          958                       # Writes before turning the bus around for reads
system.mem_ctrls1.totQLat                  4620535000                       # Total ticks spent queuing
system.mem_ctrls1.totMemAccLat             7556503750                       # Total ticks spent from burst creation until serviced by the DRAM
system.mem_ctrls1.totBusLat                 782925000                       # Total ticks spent in databus transfers
system.mem_ctrls1.avgQLat                    29508.16                       # Average queueing delay per DRAM burst
system.mem_ctrls1.avgBusLat                   5000.00                       # Average bus latency per DRAM burst
system.mem_ctrls1.avgMemAccLat               48258.16                       # Average memory access latency per DRAM burst
system.mem_ctrls1.avgRdBW                      627.25                       # Average DRAM read bandwidth in MiByte/s
system.mem_ctrls1.avgWrBW                       63.98                       # Average achieved write bandwidth in MiByte/s
system.mem_ctrls1.avgRdBWSys                   627.29                       # Average system read bandwidth in MiByte/s
system.mem_ctrls1.avgWrBWSys                    64.08                       # Average system write bandwidth in MiByte/s
system.mem_ctrls1.peakBW                     12800.00                       # Theoretical peak bandwidth in MiByte/s
system.mem_ctrls1.busUtil                        5.40                       # Data bus utilization in percentage
system.mem_ctrls1.busUtilRead                    4.90                       # Data bus utilization in percentage for reads
system.mem_ctrls1.busUtilWrite                   0.50                       # Data bus utilization in percentage for writes
system.mem_ctrls1.avgRdQLen                      1.56                       # Average read queue length when enqueuing
system.mem_ctrls1.avgWrQLen                     12.83                       # Average write queue length when enqueuing
system.mem_ctrls1.readRowHits                   69832                       # Number of row buffer hits during reads
system.mem_ctrls1.writeRowHits                   3872                       # Number of row buffer hits during writes
system.mem_ctrls1.readRowHitRate                44.60                       # Row buffer hit rate for reads
system.mem_ctrls1.writeRowHitRate               24.21                       # Row buffer hit rate for writes
system.mem_ctrls1.avgGap                     92567.23                       # Average gap between requests
system.mem_ctrls1.pageHitRate                   42.71                       # Row buffer hit rate, read and write combined
system.mem_ctrls1_0.actEnergy               336908040                       # Energy for activate commands per rank (pJ)
system.mem_ctrls1_0.preEnergy               179059485                       # Energy for precharge commands per rank (pJ)
system.mem_ctrls1_0.readEnergy              543496800                       # Energy for read commands per rank (pJ)
system.mem_ctrls1_0.writeEnergy              37980720                       # Energy for write commands per rank (pJ)
system.mem_ctrls1_0.refreshEnergy        1241572800.000000                       # Energy for refresh commands per rank (pJ)
system.mem_ctrls1_0.actBackEnergy          1455390690                       # Energy for active background per rank (pJ)
system.mem_ctrls1_0.preBackEnergy            32921280                       # Energy for precharge background per rank (pJ)
system.mem_ctrls1_0.actPowerDownEnergy     5276019750                       # Energy for active power-down per rank (pJ)
system.mem_ctrls1_0.prePowerDownEnergy      290157600                       # Energy for precharge power-down per rank (pJ)
system.mem_ctrls1_0.selfRefreshEnergy        99714645                       # Energy for self refresh per rank (pJ)
system.mem_ctrls1_0.totalEnergy            9493475400                       # Total energy per rank (pJ)
system.mem_ctrls1_0.averagePower           594.208736                       # Core power per rank (mW)
system.mem_ctrls1_0.totalIdleTime         12698743000                       # Total Idle time Per DRAM Rank
system.mem_ctrls1_0.memoryStateTime::IDLE     16123750                       # Time in different power states
system.mem_ctrls1_0.memoryStateTime::REF    525338000                       # Time in different power states
system.mem_ctrls1_0.memoryStateTime::SREF    372881500                       # Time in different power states
system.mem_ctrls1_0.memoryStateTime::PRE_PDN    755496500                       # Time in different power states
system.mem_ctrls1_0.memoryStateTime::ACT   2736324250                       # Time in different power states
system.mem_ctrls1_0.memoryStateTime::ACT_PDN  11570502500                       # Time in different power states
system.mem_ctrls1_1.actEnergy               368895240                       # Energy for activate commands per rank (pJ)
system.mem_ctrls1_1.preEnergy               196068675                       # Energy for precharge commands per rank (pJ)
system.mem_ctrls1_1.readEnergy              574520100                       # Energy for read commands per rank (pJ)
system.mem_ctrls1_1.writeEnergy              45387900                       # Energy for write commands per rank (pJ)
system.mem_ctrls1_1.refreshEnergy        1237884960.000000                       # Energy for refresh commands per rank (pJ)
system.mem_ctrls1_1.actBackEnergy          1523133480                       # Energy for active background per rank (pJ)
system.mem_ctrls1_1.preBackEnergy            32798880                       # Energy for precharge background per rank (pJ)
system.mem_ctrls1_1.actPowerDownEnergy     5211106440                       # Energy for active power-down per rank (pJ)
system.mem_ctrls1_1.prePowerDownEnergy      250248000                       # Energy for precharge power-down per rank (pJ)
system.mem_ctrls1_1.selfRefreshEnergy       127052715                       # Energy for self refresh per rank (pJ)
system.mem_ctrls1_1.totalEnergy            9567223950                       # Total energy per rank (pJ)
system.mem_ctrls1_1.averagePower           598.824752                       # Core power per rank (mW)
system.mem_ctrls1_1.totalIdleTime         12549900750                       # Total Idle time Per DRAM Rank
system.mem_ctrls1_1.memoryStateTime::IDLE     17489000                       # Time in different power states
system.mem_ctrls1_1.memoryStateTime::REF    523832000                       # Time in different power states
system.mem_ctrls1_1.memoryStateTime::SREF    471209750                       # Time in different power states
system.mem_ctrls1_1.memoryStateTime::PRE_PDN    651546500                       # Time in different power states
system.mem_ctrls1_1.memoryStateTime::ACT   2883986250                       # Time in different power states
system.mem_ctrls1_1.memoryStateTime::ACT_PDN  11428603000                       # Time in different power states
system.mem_ctrls2.pwrStateResidencyTicks::UNDEFINED  15976666500                       # Cumulative time (in ticks) in various power states
system.mem_ctrls2.bytes_read::ruby.dir_cntrl2     10035456                       # Number of bytes read from this memory
system.mem_ctrls2.bytes_read::total          10035456                       # Number of bytes read from this memory
system.mem_ctrls2.bytes_written::ruby.dir_cntrl2      1029376                       # Number of bytes written to this memory
system.mem_ctrls2.bytes_written::total        1029376                       # Number of bytes written to this memory
system.mem_ctrls2.num_reads::ruby.dir_cntrl2       156804                       # Number of read requests responded to by this memory
system.mem_ctrls2.num_reads::total             156804                       # Number of read requests responded to by this memory
system.mem_ctrls2.num_writes::ruby.dir_cntrl2        16084                       # Number of write requests responded to by this memory
system.mem_ctrls2.num_writes::total             16084                       # Number of write requests responded to by this memory
system.mem_ctrls2.bw_read::ruby.dir_cntrl2    628132032                       # Total read bandwidth from this memory (bytes/s)
system.mem_ctrls2.bw_read::total            628132032                       # Total read bandwidth from this memory (bytes/s)
system.mem_ctrls2.bw_write::ruby.dir_cntrl2     64429961                       # Write bandwidth from this memory (bytes/s)
system.mem_ctrls2.bw_write::total            64429961                       # Write bandwidth from this memory (bytes/s)
system.mem_ctrls2.bw_total::ruby.dir_cntrl2    692561993                       # Total bandwidth to/from this memory (bytes/s)
system.mem_ctrls2.bw_total::total           692561993                       # Total bandwidth to/from this memory (bytes/s)
system.mem_ctrls2.readReqs                     156804                       # Number of read requests accepted
system.mem_ctrls2.avgNetLat                      0.00                       # Average network latency to DRAM controller
system.mem_ctrls2.writeReqs                     16084                       # Number of write requests accepted
system.mem_ctrls2.readBursts                   156804                       # Number of DRAM read bursts, including those serviced by the write queue
system.mem_ctrls2.writeBursts                   16084                       # Number of DRAM write bursts, including those merged in the write queue
system.mem_ctrls2.bytesReadDRAM              10035008                       # Total number of bytes read from DRAM
system.mem_ctrls2.bytesReadWrQ                    448                       # Total number of bytes read from write queue
system.mem_ctrls2.bytesWritten                1027328                       # Total number of bytes written to DRAM
system.mem_ctrls2.bytesReadSys               10035456                       # Total read bytes from the system interface side
system.mem_ctrls2.bytesWrittenSys             1029376                       # Total written bytes from the system interface side
system.mem_ctrls2.servicedByWrQ                     7                       # Number of DRAM read bursts serviced by the write queue
system.mem_ctrls2.mergedWrBursts                    0                       # Number of DRAM write bursts merged with an existing one
system.mem_ctrls2.neitherReadNorWriteReqs            0                       # Number of requests that are neither read nor write
system.mem_ctrls2.perBankRdBursts::0            10523                       # Per bank write bursts
system.mem_ctrls2.perBankRdBursts::1             9726                       # Per bank write bursts
system.mem_ctrls2.perBankRdBursts::2             9859                       # Per bank write bursts
system.mem_ctrls2.perBankRdBursts::3             9590                       # Per bank write bursts
system.mem_ctrls2.perBankRdBursts::4             9267                       # Per bank write bursts
system.mem_ctrls2.perBankRdBursts::5             8975                       # Per bank write bursts
system.mem_ctrls2.perBankRdBursts::6             9013                       # Per bank write bursts
system.mem_ctrls2.perBankRdBursts::7             9189                       # Per bank write bursts
system.mem_ctrls2.perBankRdBursts::8             8967                       # Per bank write bursts
system.mem_ctrls2.perBankRdBursts::9             9614                       # Per bank write bursts
system.mem_ctrls2.perBankRdBursts::10           10213                       # Per bank write bursts
system.mem_ctrls2.perBankRdBursts::11           10026                       # Per bank write bursts
system.mem_ctrls2.perBankRdBursts::12           10651                       # Per bank write bursts
system.mem_ctrls2.perBankRdBursts::13           10859                       # Per bank write bursts
system.mem_ctrls2.perBankRdBursts::14           10260                       # Per bank write bursts
system.mem_ctrls2.perBankRdBursts::15           10065                       # Per bank write bursts
system.mem_ctrls2.perBankWrBursts::0             1133                       # Per bank write bursts
system.mem_ctrls2.perBankWrBursts::1              911                       # Per bank write bursts
system.mem_ctrls2.perBankWrBursts::2             1070                       # Per bank write bursts
system.mem_ctrls2.perBankWrBursts::3              977                       # Per bank write bursts
system.mem_ctrls2.perBankWrBursts::4              870                       # Per bank write bursts
system.mem_ctrls2.perBankWrBursts::5              745                       # Per bank write bursts
system.mem_ctrls2.perBankWrBursts::6              805                       # Per bank write bursts
system.mem_ctrls2.perBankWrBursts::7              754                       # Per bank write bursts
system.mem_ctrls2.perBankWrBursts::8              715                       # Per bank write bursts
system.mem_ctrls2.perBankWrBursts::9              918                       # Per bank write bursts
system.mem_ctrls2.perBankWrBursts::10            1138                       # Per bank write bursts
system.mem_ctrls2.perBankWrBursts::11            1076                       # Per bank write bursts
system.mem_ctrls2.perBankWrBursts::12            1352                       # Per bank write bursts
system.mem_ctrls2.perBankWrBursts::13            1350                       # Per bank write bursts
system.mem_ctrls2.perBankWrBursts::14            1133                       # Per bank write bursts
system.mem_ctrls2.perBankWrBursts::15            1105                       # Per bank write bursts
system.mem_ctrls2.numRdRetry                        0                       # Number of times read queue was full causing retry
system.mem_ctrls2.numWrRetry                        0                       # Number of times write queue was full causing retry
system.mem_ctrls2.totGap                  15975726500                       # Total gap between requests
system.mem_ctrls2.readPktSize::0                    0                       # Read request sizes (log2)
system.mem_ctrls2.readPktSize::1                    0                       # Read request sizes (log2)
system.mem_ctrls2.readPktSize::2                    0                       # Read request sizes (log2)
system.mem_ctrls2.readPktSize::3                    0                       # Read request sizes (log2)
system.mem_ctrls2.readPktSize::4                    0                       # Read request sizes (log2)
system.mem_ctrls2.readPktSize::5                    0                       # Read request sizes (log2)
system.mem_ctrls2.readPktSize::6               156804                       # Read request sizes (log2)
system.mem_ctrls2.writePktSize::0                   0                       # Write request sizes (log2)
system.mem_ctrls2.writePktSize::1                   0                       # Write request sizes (log2)
system.mem_ctrls2.writePktSize::2                   0                       # Write request sizes (log2)
system.mem_ctrls2.writePktSize::3                   0                       # Write request sizes (log2)
system.mem_ctrls2.writePktSize::4                   0                       # Write request sizes (log2)
system.mem_ctrls2.writePktSize::5                   0                       # Write request sizes (log2)
system.mem_ctrls2.writePktSize::6               16084                       # Write request sizes (log2)
system.mem_ctrls2.rdQLenPdf::0                  77470                       # What read queue length does an incoming req see
system.mem_ctrls2.rdQLenPdf::1                  41895                       # What read queue length does an incoming req see
system.mem_ctrls2.rdQLenPdf::2                  21622                       # What read queue length does an incoming req see
system.mem_ctrls2.rdQLenPdf::3                   9975                       # What read queue length does an incoming req see
system.mem_ctrls2.rdQLenPdf::4                   3927                       # What read queue length does an incoming req see
system.mem_ctrls2.rdQLenPdf::5                   1338                       # What read queue length does an incoming req see
system.mem_ctrls2.rdQLenPdf::6                    427                       # What read queue length does an incoming req see
system.mem_ctrls2.rdQLenPdf::7                    112                       # What read queue length does an incoming req see
system.mem_ctrls2.rdQLenPdf::8                     21                       # What read queue length does an incoming req see
system.mem_ctrls2.rdQLenPdf::9                      9                       # What read queue length does an incoming req see
system.mem_ctrls2.rdQLenPdf::10                     1                       # What read queue length does an incoming req see
system.mem_ctrls2.rdQLenPdf::11                     0                       # What read queue length does an incoming req see
system.mem_ctrls2.rdQLenPdf::12                     0                       # What read queue length does an incoming req see
system.mem_ctrls2.rdQLenPdf::13                     0                       # What read queue length does an incoming req see
system.mem_ctrls2.rdQLenPdf::14                     0                       # What read queue length does an incoming req see
system.mem_ctrls2.rdQLenPdf::15                     0                       # What read queue length does an incoming req see
system.mem_ctrls2.rdQLenPdf::16                     0                       # What read queue length does an incoming req see
system.mem_ctrls2.rdQLenPdf::17                     0                       # What read queue length does an incoming req see
system.mem_ctrls2.rdQLenPdf::18                     0                       # What read queue length does an incoming req see
system.mem_ctrls2.rdQLenPdf::19                     0                       # What read queue length does an incoming req see
system.mem_ctrls2.rdQLenPdf::20                     0                       # What read queue length does an incoming req see
system.mem_ctrls2.rdQLenPdf::21                     0                       # What read queue length does an incoming req see
system.mem_ctrls2.rdQLenPdf::22                     0                       # What read queue length does an incoming req see
system.mem_ctrls2.rdQLenPdf::23                     0                       # What read queue length does an incoming req see
system.mem_ctrls2.rdQLenPdf::24                     0                       # What read queue length does an incoming req see
system.mem_ctrls2.rdQLenPdf::25                     0                       # What read queue length does an incoming req see
system.mem_ctrls2.rdQLenPdf::26                     0                       # What read queue length does an incoming req see
system.mem_ctrls2.rdQLenPdf::27                     0                       # What read queue length does an incoming req see
system.mem_ctrls2.rdQLenPdf::28                     0                       # What read queue length does an incoming req see
system.mem_ctrls2.rdQLenPdf::29                     0                       # What read queue length does an incoming req see
system.mem_ctrls2.rdQLenPdf::30                     0                       # What read queue length does an incoming req see
system.mem_ctrls2.rdQLenPdf::31                     0                       # What read queue length does an incoming req see
system.mem_ctrls2.wrQLenPdf::0                      1                       # What write queue length does an incoming req see
system.mem_ctrls2.wrQLenPdf::1                      1                       # What write queue length does an incoming req see
system.mem_ctrls2.wrQLenPdf::2                      1                       # What write queue length does an incoming req see
system.mem_ctrls2.wrQLenPdf::3                      1                       # What write queue length does an incoming req see
system.mem_ctrls2.wrQLenPdf::4                      1                       # What write queue length does an incoming req see
system.mem_ctrls2.wrQLenPdf::5                      1                       # What write queue length does an incoming req see
system.mem_ctrls2.wrQLenPdf::6                      1                       # What write queue length does an incoming req see
system.mem_ctrls2.wrQLenPdf::7                      1                       # What write queue length does an incoming req see
system.mem_ctrls2.wrQLenPdf::8                      1                       # What write queue length does an incoming req see
system.mem_ctrls2.wrQLenPdf::9                      1                       # What write queue length does an incoming req see
system.mem_ctrls2.wrQLenPdf::10                     1                       # What write queue length does an incoming req see
system.mem_ctrls2.wrQLenPdf::11                     1                       # What write queue length does an incoming req see
system.mem_ctrls2.wrQLenPdf::12                     1                       # What write queue length does an incoming req see
system.mem_ctrls2.wrQLenPdf::13                     1                       # What write queue length does an incoming req see
system.mem_ctrls2.wrQLenPdf::14                     1                       # What write queue length does an incoming req see
system.mem_ctrls2.wrQLenPdf::15                   268                       # What write queue length does an incoming req see
system.mem_ctrls2.wrQLenPdf::16                   315                       # What write queue length does an incoming req see
system.mem_ctrls2.wrQLenPdf::17                   686                       # What write queue length does an incoming req see
system.mem_ctrls2.wrQLenPdf::18                   940                       # What write queue length does an incoming req see
system.mem_ctrls2.wrQLenPdf::19                   996                       # What write queue length does an incoming req see
system.mem_ctrls2.wrQLenPdf::20                   991                       # What write queue length does an incoming req see
system.mem_ctrls2.wrQLenPdf::21                   994                       # What write queue length does an incoming req see
system.mem_ctrls2.wrQLenPdf::22                   984                       # What write queue length does an incoming req see
system.mem_ctrls2.wrQLenPdf::23                   987                       # What write queue length does an incoming req see
[...]
system.ruby.L2Cache_Controller.M.L1_GETS |       10377      6.18%      6.18% |       10532      6.28%     12.46% |       10427      6.21%     18.67% |       10628      6.33%     25.00% |       10265      6.12%     31.12% |       10088      6.01%     37.13% |       10153      6.05%     43.18% |       10318      6.15%     49.33% |       10415      6.21%     55.54% |       10178      6.06%     61.60% |       10462      6.23%     67.83% |       11409      6.80%     74.63% |       10825      6.45%     81.08% |       10875      6.48%     87.56% |       10979      6.54%     94.10% |        9896      5.90%    100.00%
system.ruby.L2Cache_Controller.M.L1_GETS::total       167827                      
system.ruby.L2Cache_Controller.M.L1_GETX |        1249      6.14%      6.14% |        1332      6.55%     12.69% |        1396      6.86%     19.55% |        1427      7.02%     26.57% |        1279      6.29%     32.85% |        1217      5.98%     38.84% |        1164      5.72%     44.56% |        1331      6.54%     51.10% |        1231      6.05%     57.15% |        1290      6.34%     63.49% |        1261      6.20%     69.69% |        1231      6.05%     75.74% |        1220      6.00%     81.74% |        1147      5.64%     87.38% |        1252      6.15%     93.54% |        1315      6.46%    100.00%
system.ruby.L2Cache_Controller.M.L1_GETX::total        20342                      
system.ruby.L2Cache_Controller.M.L2_Replacement |        3958      6.23%      6.23% |        3984      6.28%     12.51% |        3946      6.22%     18.73% |        4009      6.31%     25.04% |        3879      6.11%     31.15% |        3931      6.19%     37.34% |        3932      6.19%     43.53% |        3967      6.25%     49.78% |        4015      6.32%     56.11% |        3869      6.09%     62.20% |        3979      6.27%     68.47% |        3896      6.14%     74.61% |        3980      6.27%     80.87% |        4075      6.42%     87.29% |        4075      6.42%     93.71% |        3992      6.29%    100.00%
system.ruby.L2Cache_Controller.M.L2_Replacement::total        63487                      
system.ruby.L2Cache_Controller.M.L2_Replacement_clean |        2972      6.36%      6.36% |        2835      6.07%     12.44% |        2772      5.94%     18.37% |        2917      6.25%     24.62% |        2843      6.09%     30.71% |        2871      6.15%     36.86% |        2917      6.25%     43.10% |        2962      6.34%     49.45% |        2996      6.42%     55.86% |        2889      6.19%     62.05% |        2909      6.23%     68.28% |        2959      6.34%     74.61% |        2987      6.40%     81.01% |        2969      6.36%     87.37% |        2929      6.27%     93.64% |        2969      6.36%    100.00%
system.ruby.L2Cache_Controller.M.L2_Replacement_clean::total        46696                      
system.ruby.L2Cache_Controller.MT.L1_GETS |          70      4.00%      4.00% |          70      4.00%      7.99% |          98      5.59%     13.58% |          98      5.59%     19.18% |          98      5.59%     24.77% |         140      7.99%     32.76% |         140      7.99%     40.75% |         140      7.99%     48.74% |         134      7.65%     56.39% |         134      7.65%     64.04% |         132      7.53%     71.58% |         134      7.65%     79.22% |         112      6.39%     85.62% |         112      6.39%     92.01% |          70      4.00%     96.00% |          70      4.00%    100.00%
system.ruby.L2Cache_Controller.MT.L1_GETS::total         1752                      
system.ruby.L2Cache_Controller.MT.L1_GETX |           0      0.00%      0.00% |           0      0.00%      0.00% |           0      0.00%      0.00% |           0      0.00%      0.00% |           0      0.00%      0.00% |           0      0.00%      0.00% |           0      0.00%      0.00% |           0      0.00%      0.00% |           3     23.08%     23.08% |           3     23.08%     46.15% |           4     30.77%     76.92% |           3     23.08%    100.00% |           0      0.00%    100.00% |           0      0.00%    100.00% |           0      0.00%    100.00% |           0      0.00%    100.00%
system.ruby.L2Cache_Controller.MT.L1_GETX::total           13                      
system.ruby.L2Cache_Controller.MT.L1_PUTX |       48615      6.24%      6.24% |       48708      6.25%     12.49% |       48462      6.22%     18.71% |       49045      6.29%     25.00% |       48243      6.19%     31.19% |       48164      6.18%     37.37% |       48292      6.20%     43.57% |       48676      6.25%     49.82% |       48733      6.25%     56.07% |       48280      6.20%     62.26% |       48663      6.24%     68.51% |       49603      6.37%     74.87% |       49212      6.32%     81.19% |       49182      6.31%     87.50% |       49202      6.31%     93.81% |       48206      6.19%    100.00%
system.ruby.L2Cache_Controller.MT.L1_PUTX::total       779286                      
system.ruby.L2Cache_Controller.MT.L2_Replacement |           6      6.90%      6.90% |           4      4.60%     11.49% |           8      9.20%     20.69% |           8      9.20%     29.89% |           9     10.34%     40.23% |           4      4.60%     44.83% |           8      9.20%     54.02% |           8      9.20%     63.22% |           8      9.20%     72.41% |           4      4.60%     77.01% |           3      3.45%     80.46% |           6      6.90%     87.36% |           5      5.75%     93.10% |           0      0.00%     93.10% |           4      4.60%     97.70% |           2      2.30%    100.00%
system.ruby.L2Cache_Controller.MT.L2_Replacement::total           87                      
system.ruby.L2Cache_Controller.MT.L2_Replacement_clean |          30      5.93%      5.93% |          33      6.52%     12.45% |          31      6.13%     18.58% |          36      7.11%     25.69% |          33      6.52%     32.21% |          34      6.72%     38.93% |          31      6.13%     45.06% |          27      5.34%     50.40% |          27      5.34%     55.73% |          33      6.52%     62.25% |          33      6.52%     68.77% |          22      4.35%     73.12% |          36      7.11%     80.24% |          23      4.55%     84.78% |          38      7.51%     92.29% |          39      7.71%    100.00%
system.ruby.L2Cache_Controller.MT.L2_Replacement_clean::total          506                      
system.ruby.L2Cache_Controller.M_I.L1_GET_INSTR |           0      0.00%      0.00% |           0      0.00%      0.00% |           0      0.00%      0.00% |           0      0.00%      0.00% |           1    100.00%    100.00% |           0      0.00%    100.00% |           0      0.00%    100.00% |           0      0.00%    100.00% |           0      0.00%    100.00% |           0      0.00%    100.00% |           0      0.00%    100.00% |           0      0.00%    100.00% |           0      0.00%    100.00% |           0      0.00%    100.00% |           0      0.00%    100.00% |           0      0.00%    100.00%
system.ruby.L2Cache_Controller.M_I.L1_GET_INSTR::total            1                      
system.ruby.L2Cache_Controller.M_I.Mem_Ack |        7537      6.28%      6.28% |        7457      6.22%     12.50% |        7381      6.15%     18.66% |        7506      6.26%     24.91% |        7341      6.12%     31.03% |        7456      6.22%     37.25% |        7478      6.23%     43.49% |        7544      6.29%     49.78% |        7667      6.39%     56.17% |        7254      6.05%     62.22% |        7424      6.19%     68.41% |        7445      6.21%     74.61% |        7582      6.32%     80.93% |        7656      6.38%     87.32% |        7682      6.40%     93.72% |        7529      6.28%    100.00%
system.ruby.L2Cache_Controller.M_I.Mem_Ack::total       119939                      
system.ruby.L2Cache_Controller.MT_I.WB_Data |           1      3.33%      3.33% |           1      3.33%      6.67% |           4     13.33%     20.00% |           2      6.67%     26.67% |           1      3.33%     30.00% |           1      3.33%     33.33% |           6     20.00%     53.33% |           2      6.67%     60.00% |           2      6.67%     66.67% |           2      6.67%     73.33% |           0      0.00%     73.33% |           3     10.00%     83.33% |           2      6.67%     90.00% |           0      0.00%     90.00% |           1      3.33%     93.33% |           2      6.67%    100.00%
system.ruby.L2Cache_Controller.MT_I.WB_Data::total           30                      
system.ruby.L2Cache_Controller.MT_I.Ack_all |           5      8.77%      8.77% |           3      5.26%     14.04% |           4      7.02%     21.05% |           6     10.53%     31.58% |           8     14.04%     45.61% |           3      5.26%     50.88% |           2      3.51%     54.39% |           6     10.53%     64.91% |           6     10.53%     75.44% |           2      3.51%     78.95% |           3      5.26%     84.21% |           3      5.26%     89.47% |           3      5.26%     94.74% |           0      0.00%     94.74% |           3      5.26%    100.00% |           0      0.00%    100.00%
system.ruby.L2Cache_Controller.MT_I.Ack_all::total           57                      
system.ruby.L2Cache_Controller.MCT_I.WB_Data |          30      6.21%      6.21% |          32      6.63%     12.84% |          30      6.21%     19.05% |          34      7.04%     26.09% |          31      6.42%     32.51% |          33      6.83%     39.34% |          28      5.80%     45.13% |          25      5.18%     50.31% |          25      5.18%     55.49% |          32      6.63%     62.11% |          31      6.42%     68.53% |          21      4.35%     72.88% |          34      7.04%     79.92% |          22      4.55%     84.47% |          37      7.66%     92.13% |          38      7.87%    100.00%
system.ruby.L2Cache_Controller.MCT_I.WB_Data::total          483                      
system.ruby.L2Cache_Controller.MCT_I.Ack_all |           0      0.00%      0.00% |           1      4.35%      4.35% |           1      4.35%      8.70% |           2      8.70%     17.39% |           2      8.70%     26.09% |           1      4.35%     30.43% |           3     13.04%     43.48% |           2      8.70%     52.17% |           2      8.70%     60.87% |           1      4.35%     65.22% |           2      8.70%     73.91% |           1      4.35%     78.26% |           2      8.70%     86.96% |           1      4.35%     91.30% |           1      4.35%     95.65% |           1      4.35%    100.00%
system.ruby.L2Cache_Controller.MCT_I.Ack_all::total           23                      
system.ruby.L2Cache_Controller.I_I.L1_GET_INSTR |           0      0.00%      0.00% |           0      0.00%      0.00% |           0      0.00%      0.00% |           0      0.00%      0.00% |           0      0.00%      0.00% |           1     50.00%     50.00% |           1     50.00%    100.00% |           0      0.00%    100.00% |           0      0.00%    100.00% |           0      0.00%    100.00% |           0      0.00%    100.00% |           0      0.00%    100.00% |           0      0.00%    100.00% |           0      0.00%    100.00% |           0      0.00%    100.00% |           0      0.00%    100.00%
system.ruby.L2Cache_Controller.I_I.L1_GET_INSTR::total            2                      
system.ruby.L2Cache_Controller.I_I.Ack_all |         570      6.24%      6.24% |         599      6.56%     12.79% |         624      6.83%     19.62% |         534      5.84%     25.47% |         575      6.29%     31.76% |         613      6.71%     38.47% |         589      6.45%     44.92% |         577      6.31%     51.23% |         618      6.76%     57.99% |         459      5.02%     63.02% |         498      5.45%     68.47% |         561      6.14%     74.61% |         571      6.25%     80.86% |         588      6.44%     87.29% |         636      6.96%     94.25% |         525      5.75%    100.00%
system.ruby.L2Cache_Controller.I_I.Ack_all::total         9137                      
system.ruby.L2Cache_Controller.S_I.Ack   |           1      3.85%      3.85% |           2      7.69%     11.54% |           0      0.00%     11.54% |           2      7.69%     19.23% |           2      7.69%     26.92% |           3     11.54%     38.46% |           1      3.85%     42.31% |           3     11.54%     53.85% |           3     11.54%     65.38% |           0      0.00%     65.38% |           2      7.69%     73.08% |           1      3.85%     76.92% |           3     11.54%     88.46% |           1      3.85%     92.31% |           0      0.00%     92.31% |           2      7.69%    100.00%
system.ruby.L2Cache_Controller.S_I.Ack::total           26                      
system.ruby.L2Cache_Controller.S_I.Ack_all |           1      3.85%      3.85% |           2      7.69%     11.54% |           0      0.00%     11.54% |           2      7.69%     19.23% |           2      7.69%     26.92% |           3     11.54%     38.46% |           1      3.85%     42.31% |           3     11.54%     53.85% |           3     11.54%     65.38% |           0      0.00%     65.38% |           2      7.69%     73.08% |           1      3.85%     76.92% |           3     11.54%     88.46% |           1      3.85%     92.31% |           0      0.00%     92.31% |           2      7.69%    100.00%
system.ruby.L2Cache_Controller.S_I.Ack_all::total           26                      
system.ruby.L2Cache_Controller.ISS.Mem_Data |       28981      6.26%      6.26% |       28757      6.22%     12.48% |       28526      6.17%     18.64% |       28923      6.25%     24.90% |       28640      6.19%     31.09% |       28831      6.23%     37.32% |       28937      6.25%     43.57% |       28982      6.26%     49.83% |       29070      6.28%     56.12% |       28848      6.23%     62.35% |       28942      6.26%     68.61% |       28995      6.27%     74.87% |       29190      6.31%     81.18% |       29148      6.30%     87.48% |       28940      6.25%     93.74% |       28973      6.26%    100.00%
system.ruby.L2Cache_Controller.ISS.Mem_Data::total       462683                      
system.ruby.L2Cache_Controller.IS.Mem_Data |        1354      6.40%      6.40% |        1356      6.41%     12.81% |        1495      7.07%     19.88% |        1285      6.07%     25.95% |        1352      6.39%     32.34% |        1339      6.33%     38.67% |        1278      6.04%     44.71% |        1281      6.06%     50.77% |        1369      6.47%     57.24% |        1164      5.50%     62.74% |        1246      5.89%     68.63% |        1263      5.97%     74.60% |        1228      5.80%     80.40% |        1298      6.14%     86.54% |        1513      7.15%     93.69% |        1335      6.31%    100.00%
system.ruby.L2Cache_Controller.IS.Mem_Data::total        21156                      
system.ruby.L2Cache_Controller.IM.Mem_Data |        8932      6.23%      6.23% |        9011      6.28%     12.51% |        9034      6.30%     18.81% |        9005      6.28%     25.09% |        8995      6.27%     31.36% |        8980      6.26%     37.62% |        8990      6.27%     43.89% |        8994      6.27%     50.16% |        8954      6.24%     56.40% |        8914      6.21%     62.61% |        8948      6.24%     68.85% |        8920      6.22%     75.07% |        8914      6.21%     81.28% |        8947      6.24%     87.52% |        8955      6.24%     93.77% |        8943      6.23%    100.00%
system.ruby.L2Cache_Controller.IM.Mem_Data::total       143436                      
system.ruby.L2Cache_Controller.SS_MB.Exclusive_Unblock |          42      3.94%      3.94% |          42      3.94%      7.89% |          70      6.57%     14.46% |          56      5.26%     19.72% |          56      5.26%     24.98% |          84      7.89%     32.86% |          84      7.89%     40.75% |          84      7.89%     48.64% |          81      7.61%     56.24% |          81      7.61%     63.85% |          80      7.51%     71.36% |          81      7.61%     78.97% |          70      6.57%     85.54% |          70      6.57%     92.11% |          42      3.94%     96.06% |          42      3.94%    100.00%
system.ruby.L2Cache_Controller.SS_MB.Exclusive_Unblock::total         1065                      
system.ruby.L2Cache_Controller.MT_MB.Exclusive_Unblock |       49539      6.24%      6.24% |       49632      6.25%     12.49% |       49383      6.22%     18.70% |       49983      6.29%     25.00% |       49179      6.19%     31.19% |       49116      6.18%     37.37% |       49244      6.20%     43.57% |       49625      6.25%     49.82% |       49673      6.25%     56.07% |       49233      6.20%     62.27% |       49617      6.25%     68.52% |       50558      6.37%     74.88% |       50149      6.31%     81.19% |       50117      6.31%     87.50% |       50126      6.31%     93.82% |       49127      6.18%    100.00%
system.ruby.L2Cache_Controller.MT_MB.Exclusive_Unblock::total       794301                      
system.ruby.L2Cache_Controller.MT_IIB.WB_Data |          69      3.98%      3.98% |          70      4.04%      8.02% |          98      5.65%     13.67% |          95      5.48%     19.15% |          95      5.48%     24.63% |         139      8.02%     32.64% |         140      8.07%     40.72% |         137      7.90%     48.62% |         132      7.61%     56.23% |         134      7.73%     63.96% |         131      7.55%     71.51% |         133      7.67%     79.18% |         110      6.34%     85.52% |         112      6.46%     91.98% |          69      3.98%     95.96% |          70      4.04%    100.00%
system.ruby.L2Cache_Controller.MT_IIB.WB_Data::total         1734                      
system.ruby.L2Cache_Controller.MT_IIB.Unblock |           1      5.56%      5.56% |           0      0.00%      5.56% |           0      0.00%      5.56% |           3     16.67%     22.22% |           3     16.67%     38.89% |           1      5.56%     44.44% |           0      0.00%     44.44% |           3     16.67%     61.11% |           2     11.11%     72.22% |           0      0.00%     72.22% |           1      5.56%     77.78% |           1      5.56%     83.33% |           2     11.11%     94.44% |           0      0.00%     94.44% |           1      5.56%    100.00% |           0      0.00%    100.00%
system.ruby.L2Cache_Controller.MT_IIB.Unblock::total           18                      
system.ruby.L2Cache_Controller.MT_IB.WB_Data |           1      5.56%      5.56% |           0      0.00%      5.56% |           0      0.00%      5.56% |           3     16.67%     22.22% |           3     16.67%     38.89% |           1      5.56%     44.44% |           0      0.00%     44.44% |           3     16.67%     61.11% |           2     11.11%     72.22% |           0      0.00%     72.22% |           1      5.56%     77.78% |           1      5.56%     83.33% |           2     11.11%     94.44% |           0      0.00%     94.44% |           1      5.56%    100.00% |           0      0.00%    100.00%
system.ruby.L2Cache_Controller.MT_IB.WB_Data::total           18                      
system.ruby.L2Cache_Controller.MT_SB.Unblock |          69      3.98%      3.98% |          70      4.04%      8.02% |          98      5.65%     13.67% |          95      5.48%     19.15% |          95      5.48%     24.63% |         139      8.02%     32.64% |         140      8.07%     40.72% |         137      7.90%     48.62% |         132      7.61%     56.23% |         134      7.73%     63.96% |         131      7.55%     71.51% |         133      7.67%     79.18% |         110      6.34%     85.52% |         112      6.46%     91.98% |          69      3.98%     95.96% |          70      4.04%    100.00%
system.ruby.L2Cache_Controller.MT_SB.Unblock::total         1734                      

---------- End Simulation Statistics   ----------
