
---------- Begin Simulation Statistics ----------
sim_seconds                                  0.014445                       # Number of seconds simulated
sim_ticks                                 14445356500                       # Number of ticks simulated
final_tick                                14445356500                       # Number of ticks from beginning of simulation (restored from checkpoints and never reset)
sim_freq                                 1000000000000                       # Frequency of simulated ticks
host_inst_rate                                   8746                       # Simulator instruction rate (inst/s)
host_op_rate                                    15072                       # Simulator op (including micro ops) rate (op/s)
host_tick_rate                                2528248                       # Simulator tick rate (ticks/s)
host_mem_usage                                2279228                       # Number of bytes of host memory used
host_seconds                                  5713.58                       # Real time elapsed on the host
sim_insts                                    49969502                       # Number of instructions simulated
sim_ops                                      86113483                       # Number of ops (including micro ops) simulated
system.voltage_domain.voltage                       1                       # Voltage in Volts
system.clk_domain.clock                          1000                       # Clock period in ticks
system.mem_ctrls0.pwrStateResidencyTicks::UNDEFINED  14445356500                       # Cumulative time (in ticks) in various power states
system.mem_ctrls0.bytes_read::ruby.dir_cntrl0      2515520                       # Number of bytes read from this memory
system.mem_ctrls0.bytes_read::total           2515520                       # Number of bytes read from this memory
system.mem_ctrls0.bytes_written::ruby.dir_cntrl0          896                       # Number of bytes written to this memory
system.mem_ctrls0.bytes_written::total            896                       # Number of bytes written to this memory
system.mem_ctrls0.num_reads::ruby.dir_cntrl0        39305                       # Number of read requests responded to by this memory
system.mem_ctrls0.num_reads::total              39305                       # Number of read requests responded to by this memory
system.mem_ctrls0.num_writes::ruby.dir_cntrl0           14                       # Number of write requests responded to by this memory
system.mem_ctrls0.num_writes::total                14                       # Number of write requests responded to by this memory
system.mem_ctrls0.bw_read::ruby.dir_cntrl0    174140389                       # Total read bandwidth from this memory (bytes/s)
system.mem_ctrls0.bw_read::total            174140389                       # Total read bandwidth from this memory (bytes/s)
system.mem_ctrls0.bw_write::ruby.dir_cntrl0        62027                       # Write bandwidth from this memory (bytes/s)
system.mem_ctrls0.bw_write::total               62027                       # Write bandwidth from this memory (bytes/s)
system.mem_ctrls0.bw_total::ruby.dir_cntrl0    174202416                       # Total bandwidth to/from this memory (bytes/s)
system.mem_ctrls0.bw_total::total           174202416                       # Total bandwidth to/from this memory (bytes/s)
system.mem_ctrls0.readReqs                      39305                       # Number of read requests accepted
system.mem_ctrls0.writeReqs                        14                       # Number of write requests accepted
system.mem_ctrls0.readBursts                    39305                       # Number of DRAM read bursts, including those serviced by the write queue
system.mem_ctrls0.writeBursts                      14                       # Number of DRAM write bursts, including those merged in the write queue
system.mem_ctrls0.bytesReadDRAM               2515520                       # Total number of bytes read from DRAM
system.mem_ctrls0.bytesReadWrQ                      0                       # Total number of bytes read from write queue
system.mem_ctrls0.bytesWritten                      0                       # Total number of bytes written to DRAM
system.mem_ctrls0.bytesReadSys                2515520                       # Total read bytes from the system interface side
system.mem_ctrls0.bytesWrittenSys                 896                       # Total written bytes from the system interface side
system.mem_ctrls0.servicedByWrQ                     0                       # Number of DRAM read bursts serviced by the write queue
system.mem_ctrls0.mergedWrBursts                    0                       # Number of DRAM write bursts merged with an existing one
system.mem_ctrls0.neitherReadNorWriteReqs            0                       # Number of requests that are neither read nor write
system.mem_ctrls0.perBankRdBursts::0             2423                       # Per bank write bursts
system.mem_ctrls0.perBankRdBursts::1             2426                       # Per bank write bursts
system.mem_ctrls0.perBankRdBursts::2             2390                       # Per bank write bursts
system.mem_ctrls0.perBankRdBursts::3             2642                       # Per bank write bursts
system.mem_ctrls0.perBankRdBursts::4             2497                       # Per bank write bursts
system.mem_ctrls0.perBankRdBursts::5             2280                       # Per bank write bursts
system.mem_ctrls0.perBankRdBursts::6             2550                       # Per bank write bursts
system.mem_ctrls0.perBankRdBursts::7             2327                       # Per bank write bursts
system.mem_ctrls0.perBankRdBursts::8             2397                       # Per bank write bursts
system.mem_ctrls0.perBankRdBursts::9             2552                       # Per bank write bursts
system.mem_ctrls0.perBankRdBursts::10            2465                       # Per bank write bursts
system.mem_ctrls0.perBankRdBursts::11            2422                       # Per bank write bursts
system.mem_ctrls0.perBankRdBursts::12            2466                       # Per bank write bursts
system.mem_ctrls0.perBankRdBursts::13            2645                       # Per bank write bursts
system.mem_ctrls0.perBankRdBursts::14            2510                       # Per bank write bursts
system.mem_ctrls0.perBankRdBursts::15            2313                       # Per bank write bursts
system.mem_ctrls0.perBankWrBursts::0                0                       # Per bank write bursts
system.mem_ctrls0.perBankWrBursts::1                0                       # Per bank write bursts
system.mem_ctrls0.perBankWrBursts::2                0                       # Per bank write bursts
system.mem_ctrls0.perBankWrBursts::3                0                       # Per bank write bursts
system.mem_ctrls0.perBankWrBursts::4                0                       # Per bank write bursts
system.mem_ctrls0.perBankWrBursts::5                0                       # Per bank write bursts
system.mem_ctrls0.perBankWrBursts::6                0                       # Per bank write bursts
system.mem_ctrls0.perBankWrBursts::7                0                       # Per bank write bursts
system.mem_ctrls0.perBankWrBursts::8                0                       # Per bank write bursts
system.mem_ctrls0.perBankWrBursts::9                0                       # Per bank write bursts
system.mem_ctrls0.perBankWrBursts::10               0                       # Per bank write bursts
system.mem_ctrls0.perBankWrBursts::11               0                       # Per bank write bursts
system.mem_ctrls0.perBankWrBursts::12               0                       # Per bank write bursts
system.mem_ctrls0.perBankWrBursts::13               0                       # Per bank write bursts
system.mem_ctrls0.perBankWrBursts::14               0                       # Per bank write bursts
system.mem_ctrls0.perBankWrBursts::15               0                       # Per bank write bursts
system.mem_ctrls0.numRdRetry                        0                       # Number of times read queue was full causing retry
system.mem_ctrls0.numWrRetry                        0                       # Number of times write queue was full causing retry
system.mem_ctrls0.totGap                  14443755500                       # Total gap between requests
system.mem_ctrls0.readPktSize::0                    0                       # Read request sizes (log2)
system.mem_ctrls0.readPktSize::1                    0                       # Read request sizes (log2)
system.mem_ctrls0.readPktSize::2                    0                       # Read request sizes (log2)
system.mem_ctrls0.readPktSize::3                    0                       # Read request sizes (log2)
system.mem_ctrls0.readPktSize::4                    0                       # Read request sizes (log2)
system.mem_ctrls0.readPktSize::5                    0                       # Read request sizes (log2)
system.mem_ctrls0.readPktSize::6                39305                       # Read request sizes (log2)
system.mem_ctrls0.writePktSize::0                   0                       # Write request sizes (log2)
system.mem_ctrls0.writePktSize::1                   0                       # Write request sizes (log2)
system.mem_ctrls0.writePktSize::2                   0                       # Write request sizes (log2)
system.mem_ctrls0.writePktSize::3                   0                       # Write request sizes (log2)
system.mem_ctrls0.writePktSize::4                   0                       # Write request sizes (log2)
system.mem_ctrls0.writePktSize::5                   0                       # Write request sizes (log2)
system.mem_ctrls0.writePktSize::6                  14                       # Write request sizes (log2)
system.mem_ctrls0.rdQLenPdf::0                  29143                       # What read queue length does an incoming req see
system.mem_ctrls0.rdQLenPdf::1                   6956                       # What read queue length does an incoming req see
system.mem_ctrls0.rdQLenPdf::2                   2046                       # What read queue length does an incoming req see
system.mem_ctrls0.rdQLenPdf::3                    721                       # What read queue length does an incoming req see
system.mem_ctrls0.rdQLenPdf::4                    251                       # What read queue length does an incoming req see
system.mem_ctrls0.rdQLenPdf::5                     86                       # What read queue length does an incoming req see
system.mem_ctrls0.rdQLenPdf::6                     42                       # What read queue length does an incoming req see
system.mem_ctrls0.rdQLenPdf::7                     24                       # What read queue length does an incoming req see
system.mem_ctrls0.rdQLenPdf::8                     16                       # What read queue length does an incoming req see
system.mem_ctrls0.rdQLenPdf::9                      9                       # What read queue length does an incoming req see
system.mem_ctrls0.rdQLenPdf::10                     5                       # What read queue length does an incoming req see
system.mem_ctrls0.rdQLenPdf::11                     4                       # What read queue length does an incoming req see
system.mem_ctrls0.rdQLenPdf::12                     1                       # What read queue length does an incoming req see
system.mem_ctrls0.rdQLenPdf::13                     1                       # What read queue length does an incoming req see
system.mem_ctrls0.rdQLenPdf::14                     0                       # What read queue length does an incoming req see
system.mem_ctrls0.rdQLenPdf::15                     0                       # What read queue length does an incoming req see
system.mem_ctrls0.rdQLenPdf::16                     0                       # What read queue length does an incoming req see
system.mem_ctrls0.rdQLenPdf::17                     0                       # What read queue length does an incoming req see
system.mem_ctrls0.rdQLenPdf::18                     0                       # What read queue length does an incoming req see
system.mem_ctrls0.rdQLenPdf::19                     0                       # What read queue length does an incoming req see
system.mem_ctrls0.rdQLenPdf::20                     0                       # What read queue length does an incoming req see
system.mem_ctrls0.rdQLenPdf::21                     0                       # What read queue length does an incoming req see
system.mem_ctrls0.rdQLenPdf::22                     0                       # What read queue length does an incoming req see
system.mem_ctrls0.rdQLenPdf::23                     0                       # What read queue length does an incoming req see
system.mem_ctrls0.rdQLenPdf::24                     0                       # What read queue length does an incoming req see
system.mem_ctrls0.rdQLenPdf::25                     0                       # What read queue length does an incoming req see
system.mem_ctrls0.rdQLenPdf::26                     0                       # What read queue length does an incoming req see
system.mem_ctrls0.rdQLenPdf::27                     0                       # What read queue length does an incoming req see
system.mem_ctrls0.rdQLenPdf::28                     0                       # What read queue length does an incoming req see
system.mem_ctrls0.rdQLenPdf::29                     0                       # What read queue length does an incoming req see
system.mem_ctrls0.rdQLenPdf::30                     0                       # What read queue length does an incoming req see
system.mem_ctrls0.rdQLenPdf::31                     0                       # What read queue length does an incoming req see
system.mem_ctrls0.wrQLenPdf::0                      1                       # What write queue length does an incoming req see
system.mem_ctrls0.wrQLenPdf::1                      1                       # What write queue length does an incoming req see
system.mem_ctrls0.wrQLenPdf::2                      1                       # What write queue length does an incoming req see
system.mem_ctrls0.wrQLenPdf::3                      1                       # What write queue length does an incoming req see
system.mem_ctrls0.wrQLenPdf::4                      1                       # What write queue length does an incoming req see
system.mem_ctrls0.wrQLenPdf::5                      1                       # What write queue length does an incoming req see
system.mem_ctrls0.wrQLenPdf::6                      1                       # What write queue length does an incoming req see
system.mem_ctrls0.wrQLenPdf::7                      1                       # What write queue length does an incoming req see
system.mem_ctrls0.wrQLenPdf::8                      1                       # What write queue length does an incoming req see
system.mem_ctrls0.wrQLenPdf::9                      1                       # What write queue length does an incoming req see
system.mem_ctrls0.wrQLenPdf::10                     1                       # What write queue length does an incoming req see
system.mem_ctrls0.wrQLenPdf::11                     1                       # What write queue length does an incoming req see
system.mem_ctrls0.wrQLenPdf::12                     1                       # What write queue length does an incoming req see
system.mem_ctrls0.wrQLenPdf::13                     1                       # What write queue length does an incoming req see
system.mem_ctrls0.wrQLenPdf::14                     0                       # What write queue length does an incoming req see
system.mem_ctrls0.wrQLenPdf::15                     0                       # What write queue length does an incoming req see
system.mem_ctrls0.wrQLenPdf::16                     0                       # What write queue length does an incoming req see
system.mem_ctrls0.wrQLenPdf::17                     0                       # What write queue length does an incoming req see
system.mem_ctrls0.wrQLenPdf::18                     0                       # What write queue length does an incoming req see
system.mem_ctrls0.wrQLenPdf::19                     0                       # What write queue length does an incoming req see
system.mem_ctrls0.wrQLenPdf::20                     0                       # What write queue length does an incoming req see
system.mem_ctrls0.wrQLenPdf::21                     0                       # What write queue length does an incoming req see
system.mem_ctrls0.wrQLenPdf::22                     0                       # What write queue length does an incoming req see
system.mem_ctrls0.wrQLenPdf::23                     0                       # What write queue length does an incoming req see
system.mem_ctrls0.wrQLenPdf::24                     0                       # What write queue length does an incoming req see
system.mem_ctrls0.wrQLenPdf::25                     0                       # What write queue length does an incoming req see
system.mem_ctrls0.wrQLenPdf::26                     0                       # What write queue length does an incoming req see
system.mem_ctrls0.wrQLenPdf::27                     0                       # What write queue length does an incoming req see
system.mem_ctrls0.wrQLenPdf::28                     0                       # What write queue length does an incoming req see
system.mem_ctrls0.wrQLenPdf::29                     0                       # What write queue length does an incoming req see
system.mem_ctrls0.wrQLenPdf::30                     0                       # What write queue length does an incoming req see
system.mem_ctrls0.wrQLenPdf::31                     0                       # What write queue length does an incoming req see
system.mem_ctrls0.wrQLenPdf::32                     0                       # What write queue length does an incoming req see
system.mem_ctrls0.wrQLenPdf::33                     0                       # What write queue length does an incoming req see
system.mem_ctrls0.wrQLenPdf::34                     0                       # What write queue length does an incoming req see
system.mem_ctrls0.wrQLenPdf::35                     0                       # What write queue length does an incoming req see
system.mem_ctrls0.wrQLenPdf::36                     0                       # What write queue length does an incoming req see
system.mem_ctrls0.wrQLenPdf::37                     0                       # What write queue length does an incoming req see
system.mem_ctrls0.wrQLenPdf::38                     0                       # What write queue length does an incoming req see
system.mem_ctrls0.wrQLenPdf::39                     0                       # What write queue length does an incoming req see
system.mem_ctrls0.wrQLenPdf::40                     0                       # What write queue length does an incoming req see
system.mem_ctrls0.wrQLenPdf::41                     0                       # What write queue length does an incoming req see
system.mem_ctrls0.wrQLenPdf::42                     0                       # What write queue length does an incoming req see
system.mem_ctrls0.wrQLenPdf::43                     0                       # What write queue length does an incoming req see
system.mem_ctrls0.wrQLenPdf::44                     0                       # What write queue length does an incoming req see
system.mem_ctrls0.wrQLenPdf::45                     0                       # What write queue length does an incoming req see
system.mem_ctrls0.wrQLenPdf::46                     0                       # What write queue length does an incoming req see
system.mem_ctrls0.wrQLenPdf::47                     0                       # What write queue length does an incoming req see
system.mem_ctrls0.wrQLenPdf::48                     0                       # What write queue length does an incoming req see
system.mem_ctrls0.wrQLenPdf::49                     0                       # What write queue length does an incoming req see
system.mem_ctrls0.wrQLenPdf::50                     0                       # What write queue length does an incoming req see
system.mem_ctrls0.wrQLenPdf::51                     0                       # What write queue length does an incoming req see
system.mem_ctrls0.wrQLenPdf::52                     0                       # What write queue length does an incoming req see
system.mem_ctrls0.wrQLenPdf::53                     0                       # What write queue length does an incoming req see
system.mem_ctrls0.wrQLenPdf::54                     0                       # What write queue length does an incoming req see
system.mem_ctrls0.wrQLenPdf::55                     0                       # What write queue length does an incoming req see
system.mem_ctrls0.wrQLenPdf::56                     0                       # What write queue length does an incoming req see
system.mem_ctrls0.wrQLenPdf::57                     0                       # What write queue length does an incoming req see
system.mem_ctrls0.wrQLenPdf::58                     0                       # What write queue length does an incoming req see
system.mem_ctrls0.wrQLenPdf::59                     0                       # What write queue length does an incoming req see
system.mem_ctrls0.wrQLenPdf::60                     0                       # What write queue length does an incoming req see
system.mem_ctrls0.wrQLenPdf::61                     0                       # What write queue length does an incoming req see
system.mem_ctrls0.wrQLenPdf::62                     0                       # What write queue length does an incoming req see
system.mem_ctrls0.wrQLenPdf::63                     0                       # What write queue length does an incoming req see
system.mem_ctrls0.bytesPerActivate::samples        25146                       # Bytes accessed per row activation
system.mem_ctrls0.bytesPerActivate::mean   100.031496                       # Bytes accessed per row activation
system.mem_ctrls0.bytesPerActivate::gmean    78.807732                       # Bytes accessed per row activation
system.mem_ctrls0.bytesPerActivate::stdev   111.317365                       # Bytes accessed per row activation
system.mem_ctrls0.bytesPerActivate::0-127        21105     83.93%     83.93% # Bytes accessed per row activation
system.mem_ctrls0.bytesPerActivate::128-255         2231      8.87%     92.80% # Bytes accessed per row activation
system.mem_ctrls0.bytesPerActivate::256-383          413      1.64%     94.44% # Bytes accessed per row activation
system.mem_ctrls0.bytesPerActivate::384-511          204      0.81%     95.26% # Bytes accessed per row activation
system.mem_ctrls0.bytesPerActivate::512-639         1121      4.46%     99.71% # Bytes accessed per row activation
system.mem_ctrls0.bytesPerActivate::640-767           57      0.23%     99.94% # Bytes accessed per row activation
system.mem_ctrls0.bytesPerActivate::768-895            7      0.03%     99.97% # Bytes accessed per row activation
system.mem_ctrls0.bytesPerActivate::896-1023            1      0.00%     99.97% # Bytes accessed per row activation
system.mem_ctrls0.bytesPerActivate::1024-1151            7      0.03%    100.00% # Bytes accessed per row activation
system.mem_ctrls0.bytesPerActivate::total        25146                       # Bytes accessed per row activation
system.mem_ctrls0.totQLat                  1246144750                       # Total ticks spent queuing
system.mem_ctrls0.totMemAccLat             1983113500                       # Total ticks spent from burst creation until serviced by the DRAM
system.mem_ctrls0.totBusLat                 196525000                       # Total ticks spent in databus transfers
system.mem_ctrls0.avgQLat                    31704.48                       # Average queueing delay per DRAM burst
system.mem_ctrls0.avgBusLat                   5000.00                       # Average bus latency per DRAM burst
system.mem_ctrls0.avgMemAccLat               50454.48                       # Average memory access latency per DRAM burst
system.mem_ctrls0.avgRdBW                      174.14                       # Average DRAM read bandwidth in MiByte/s
system.mem_ctrls0.avgWrBW                        0.00                       # Average achieved write bandwidth in MiByte/s
system.mem_ctrls0.avgRdBWSys                   174.14                       # Average system read bandwidth in MiByte/s
system.mem_ctrls0.avgWrBWSys                     0.06                       # Average system write bandwidth in MiByte/s
system.mem_ctrls0.peakBW                     12800.00                       # Theoretical peak bandwidth in MiByte/s
system.mem_ctrls0.busUtil                        1.36                       # Data bus utilization in percentage
system.mem_ctrls0.busUtilRead                    1.36                       # Data bus utilization in percentage for reads
system.mem_ctrls0.busUtilWrite                   0.00                       # Data bus utilization in percentage for writes
system.mem_ctrls0.avgRdQLen                      1.28                       # Average read queue length when enqueuing
system.mem_ctrls0.avgWrQLen                      1.68                       # Average write queue length when enqueuing
system.mem_ctrls0.readRowHits                   14158                       # Number of row buffer hits during reads
system.mem_ctrls0.writeRowHits                      0                       # Number of row buffer hits during writes
system.mem_ctrls0.readRowHitRate                36.02                       # Row buffer hit rate for reads
system.mem_ctrls0.writeRowHitRate                0.00                       # Row buffer hit rate for writes
system.mem_ctrls0.avgGap                    367347.99                       # Average gap between requests
system.mem_ctrls0.pageHitRate                   36.01                       # Row buffer hit rate, read and write combined
system.mem_ctrls0_0.actEnergy                84451920                       # Energy for activate commands per rank (pJ)
system.mem_ctrls0_0.preEnergy                44883465                       # Energy for precharge commands per rank (pJ)
system.mem_ctrls0_0.readEnergy              139479900                       # Energy for read commands per rank (pJ)
system.mem_ctrls0_0.writeEnergy                     0                       # Energy for write commands per rank (pJ)
system.mem_ctrls0_0.refreshEnergy        1008009600.000000                       # Energy for refresh commands per rank (pJ)
system.mem_ctrls0_0.actBackEnergy           477864060                       # Energy for active background per rank (pJ)
system.mem_ctrls0_0.preBackEnergy            29904960                       # Energy for precharge background per rank (pJ)
system.mem_ctrls0_0.actPowerDownEnergy     4296783690                       # Energy for active power-down per rank (pJ)
system.mem_ctrls0_0.prePowerDownEnergy      652860000                       # Energy for precharge power-down per rank (pJ)
system.mem_ctrls0_0.selfRefreshEnergy       567121710                       # Energy for self refresh per rank (pJ)
system.mem_ctrls0_0.totalEnergy            7301736975                       # Total energy per rank (pJ)
system.mem_ctrls0_0.averagePower           505.472916                       # Core power per rank (mW)
system.mem_ctrls0_0.totalIdleTime         13317101750                       # Total Idle time Per DRAM Rank
system.mem_ctrls0_0.memoryStateTime::IDLE     27779000                       # Time in different power states
system.mem_ctrls0_0.memoryStateTime::REF    426862000                       # Time in different power states
system.mem_ctrls0_0.memoryStateTime::SREF   2195766500                       # Time in different power states
system.mem_ctrls0_0.memoryStateTime::PRE_PDN   1700062000                       # Time in different power states
system.mem_ctrls0_0.memoryStateTime::ACT    672132000                       # Time in different power states
system.mem_ctrls0_0.memoryStateTime::ACT_PDN   9422755000                       # Time in different power states
system.mem_ctrls0_1.actEnergy                95097660                       # Energy for activate commands per rank (pJ)
system.mem_ctrls0_1.preEnergy                50545605                       # Energy for precharge commands per rank (pJ)
system.mem_ctrls0_1.readEnergy              141157800                       # Energy for read commands per rank (pJ)
system.mem_ctrls0_1.writeEnergy                     0                       # Energy for write commands per rank (pJ)
system.mem_ctrls0_1.refreshEnergy        1022146320.000000                       # Energy for refresh commands per rank (pJ)
system.mem_ctrls0_1.actBackEnergy           492184740                       # Energy for active background per rank (pJ)
system.mem_ctrls0_1.preBackEnergy            37762080                       # Energy for precharge background per rank (pJ)
system.mem_ctrls0_1.actPowerDownEnergy     4326022410                       # Energy for active power-down per rank (pJ)
system.mem_ctrls0_1.prePowerDownEnergy      662676480                       # Energy for precharge power-down per rank (pJ)
system.mem_ctrls0_1.selfRefreshEnergy       535764885                       # Energy for self refresh per rank (pJ)
system.mem_ctrls0_1.totalEnergy            7363459590                       # Total energy per rank (pJ)
system.mem_ctrls0_1.averagePower           509.745750                       # Core power per rank (mW)
system.mem_ctrls0_1.totalIdleTime         13251027500                       # Total Idle time Per DRAM Rank
system.mem_ctrls0_1.memoryStateTime::IDLE     29206750                       # Time in different power states
system.mem_ctrls0_1.memoryStateTime::REF    432872000                       # Time in different power states
system.mem_ctrls0_1.memoryStateTime::SREF   2054826000                       # Time in different power states
system.mem_ctrls0_1.memoryStateTime::PRE_PDN   1725595250                       # Time in different power states
system.mem_ctrls0_1.memoryStateTime::ACT    716114750                       # Time in different power states
system.mem_ctrls0_1.memoryStateTime::ACT_PDN   9486741750                       # Time in different power states
system.mem_ctrls1.pwrStateResidencyTicks::UNDEFINED  14445356500                       # Cumulative time (in ticks) in various power states
system.mem_ctrls1.bytes_read::ruby.dir_cntrl1      2479680                       # Number of bytes read from this memory
system.mem_ctrls1.bytes_read::total           2479680                       # Number of bytes read from this memory
system.mem_ctrls1.bytes_written::ruby.dir_cntrl1          704                       # Number of bytes written to this memory
system.mem_ctrls1.bytes_written::total            704                       # Number of bytes written to this memory
system.mem_ctrls1.num_reads::ruby.dir_cntrl1        38745                       # Number of read requests responded to by this memory
system.mem_ctrls1.num_reads::total              38745                       # Number of read requests responded to by this memory
system.mem_ctrls1.num_writes::ruby.dir_cntrl1           11                       # Number of write requests responded to by this memory
system.mem_ctrls1.num_writes::total                11                       # Number of write requests responded to by this memory
system.mem_ctrls1.bw_read::ruby.dir_cntrl1    171659315                       # Total read bandwidth from this memory (bytes/s)
system.mem_ctrls1.bw_read::total            171659315                       # Total read bandwidth from this memory (bytes/s)
system.mem_ctrls1.bw_write::ruby.dir_cntrl1        48735                       # Write bandwidth from this memory (bytes/s)
system.mem_ctrls1.bw_write::total               48735                       # Write bandwidth from this memory (bytes/s)
system.mem_ctrls1.bw_total::ruby.dir_cntrl1    171708050                       # Total bandwidth to/from this memory (bytes/s)
system.mem_ctrls1.bw_total::total           171708050                       # Total bandwidth to/from this memory (bytes/s)
system.mem_ctrls1.readReqs                      38745                       # Number of read requests accepted
system.mem_ctrls1.writeReqs                        11                       # Number of write requests accepted
system.mem_ctrls1.readBursts                    38745                       # Number of DRAM read bursts, including those serviced by the write queue
system.mem_ctrls1.writeBursts                      11                       # Number of DRAM write bursts, including those merged in the write queue
system.mem_ctrls1.bytesReadDRAM               2479616                       # Total number of bytes read from DRAM
system.mem_ctrls1.bytesReadWrQ                     64                       # Total number of bytes read from write queue
system.mem_ctrls1.bytesWritten                      0                       # Total number of bytes written to DRAM
system.mem_ctrls1.bytesReadSys                2479680                       # Total read bytes from the system interface side
system.mem_ctrls1.bytesWrittenSys                 704                       # Total written bytes from the system interface side
system.mem_ctrls1.servicedByWrQ                     1                       # Number of DRAM read bursts serviced by the write queue
system.mem_ctrls1.mergedWrBursts                    0                       # Number of DRAM write bursts merged with an existing one
system.mem_ctrls1.neitherReadNorWriteReqs            0                       # Number of requests that are neither read nor write
system.mem_ctrls1.perBankRdBursts::0             2392                       # Per bank write bursts
system.mem_ctrls1.perBankRdBursts::1             2362                       # Per bank write bursts
system.mem_ctrls1.perBankRdBursts::2             2374                       # Per bank write bursts
system.mem_ctrls1.perBankRdBursts::3             2589                       # Per bank write bursts
system.mem_ctrls1.perBankRdBursts::4             2463                       # Per bank write bursts
system.mem_ctrls1.perBankRdBursts::5             2243                       # Per bank write bursts
system.mem_ctrls1.perBankRdBursts::6             2532                       # Per bank write bursts
system.mem_ctrls1.perBankRdBursts::7             2280                       # Per bank write bursts
system.mem_ctrls1.perBankRdBursts::8             2393                       # Per bank write bursts
system.mem_ctrls1.perBankRdBursts::9             2543                       # Per bank write bursts
system.mem_ctrls1.perBankRdBursts::10            2419                       # Per bank write bursts
system.mem_ctrls1.perBankRdBursts::11            2395                       # Per bank write bursts
system.mem_ctrls1.perBankRdBursts::12            2422                       # Per bank write bursts
system.mem_ctrls1.perBankRdBursts::13            2599                       # Per bank write bursts
system.mem_ctrls1.perBankRdBursts::14            2477                       # Per bank write bursts
system.mem_ctrls1.perBankRdBursts::15            2261                       # Per bank write bursts
system.mem_ctrls1.perBankWrBursts::0                0                       # Per bank write bursts
system.mem_ctrls1.perBankWrBursts::1                0                       # Per bank write bursts
system.mem_ctrls1.perBankWrBursts::2                0                       # Per bank write bursts
system.mem_ctrls1.perBankWrBursts::3                0                       # Per bank write bursts
system.mem_ctrls1.perBankWrBursts::4                0                       # Per bank write bursts
system.mem_ctrls1.perBankWrBursts::5                0                       # Per bank write bursts
system.mem_ctrls1.perBankWrBursts::6                0                       # Per bank write bursts
system.mem_ctrls1.perBankWrBursts::7                0                       # Per bank write bursts
system.mem_ctrls1.perBankWrBursts::8                0                       # Per bank write bursts
system.mem_ctrls1.perBankWrBursts::9                0                       # Per bank write bursts
system.mem_ctrls1.perBankWrBursts::10               0                       # Per bank write bursts
system.mem_ctrls1.perBankWrBursts::11               0                       # Per bank write bursts
system.mem_ctrls1.perBankWrBursts::12               0                       # Per bank write bursts
system.mem_ctrls1.perBankWrBursts::13               0                       # Per bank write bursts
system.mem_ctrls1.perBankWrBursts::14               0                       # Per bank write bursts
system.mem_ctrls1.perBankWrBursts::15               0                       # Per bank write bursts
system.mem_ctrls1.numRdRetry                        0                       # Number of times read queue was full causing retry
system.mem_ctrls1.numWrRetry                        0                       # Number of times write queue was full causing retry
system.mem_ctrls1.totGap                  14444027500                       # Total gap between requests
system.mem_ctrls1.readPktSize::0                    0                       # Read request sizes (log2)
system.mem_ctrls1.readPktSize::1                    0                       # Read request sizes (log2)
system.mem_ctrls1.readPktSize::2                    0                       # Read request sizes (log2)
system.mem_ctrls1.readPktSize::3                    0                       # Read request sizes (log2)
system.mem_ctrls1.readPktSize::4                    0                       # Read request sizes (log2)
system.mem_ctrls1.readPktSize::5                    0                       # Read request sizes (log2)
system.mem_ctrls1.readPktSize::6                38745                       # Read request sizes (log2)
system.mem_ctrls1.writePktSize::0                   0                       # Write request sizes (log2)
system.mem_ctrls1.writePktSize::1                   0                       # Write request sizes (log2)
system.mem_ctrls1.writePktSize::2                   0                       # Write request sizes (log2)
system.mem_ctrls1.writePktSize::3                   0                       # Write request sizes (log2)
system.mem_ctrls1.writePktSize::4                   0                       # Write request sizes (log2)
system.mem_ctrls1.writePktSize::5                   0                       # Write request sizes (log2)
system.mem_ctrls1.writePktSize::6                  11                       # Write request sizes (log2)
system.mem_ctrls1.rdQLenPdf::0                  28949                       # What read queue length does an incoming req see
system.mem_ctrls1.rdQLenPdf::1                   6751                       # What read queue length does an incoming req see
system.mem_ctrls1.rdQLenPdf::2                   1945                       # What read queue length does an incoming req see
system.mem_ctrls1.rdQLenPdf::3                    676                       # What read queue length does an incoming req see
system.mem_ctrls1.rdQLenPdf::4                    255                       # What read queue length does an incoming req see
system.mem_ctrls1.rdQLenPdf::5                     86                       # What read queue length does an incoming req see
system.mem_ctrls1.rdQLenPdf::6                     33                       # What read queue length does an incoming req see
system.mem_ctrls1.rdQLenPdf::7                     20                       # What read queue length does an incoming req see
system.mem_ctrls1.rdQLenPdf::8                     11                       # What read queue length does an incoming req see
system.mem_ctrls1.rdQLenPdf::9                      7                       # What read queue length does an incoming req see
system.mem_ctrls1.rdQLenPdf::10                     6                       # What read queue length does an incoming req see
system.mem_ctrls1.rdQLenPdf::11                     5                       # What read queue length does an incoming req see
system.mem_ctrls1.rdQLenPdf::12                     0                       # What read queue length does an incoming req see
system.mem_ctrls1.rdQLenPdf::13                     0                       # What read queue length does an incoming req see
system.mem_ctrls1.rdQLenPdf::14                     0                       # What read queue length does an incoming req see
system.mem_ctrls1.rdQLenPdf::15                     0                       # What read queue length does an incoming req see
system.mem_ctrls1.rdQLenPdf::16                     0                       # What read queue length does an incoming req see
system.mem_ctrls1.rdQLenPdf::17                     0                       # What read queue length does an incoming req see
system.mem_ctrls1.rdQLenPdf::18                     0                       # What read queue length does an incoming req see
system.mem_ctrls1.rdQLenPdf::19                     0                       # What read queue length does an incoming req see
system.mem_ctrls1.rdQLenPdf::20                     0                       # What read queue length does an incoming req see
system.mem_ctrls1.rdQLenPdf::21                     0                       # What read queue length does an incoming req see
system.mem_ctrls1.rdQLenPdf::22                     0                       # What read queue length does an incoming req see
system.mem_ctrls1.rdQLenPdf::23                     0                       # What read queue length does an incoming req see
system.mem_ctrls1.rdQLenPdf::24                     0                       # What read queue length does an incoming req see
system.mem_ctrls1.rdQLenPdf::25                     0                       # What read queue length does an incoming req see
system.mem_ctrls1.rdQLenPdf::26                     0                       # What read queue length does an incoming req see
system.mem_ctrls1.rdQLenPdf::27                     0                       # What read queue length does an incoming req see
system.mem_ctrls1.rdQLenPdf::28                     0                       # What read queue length does an incoming req see
system.mem_ctrls1.rdQLenPdf::29                     0                       # What read queue length does an incoming req see
system.mem_ctrls1.rdQLenPdf::30                     0                       # What read queue length does an incoming req see
system.mem_ctrls1.rdQLenPdf::31                     0                       # What read queue length does an incoming req see
system.mem_ctrls1.wrQLenPdf::0                      1                       # What write queue length does an incoming req see
system.mem_ctrls1.wrQLenPdf::1                      1                       # What write queue length does an incoming req see
system.mem_ctrls1.wrQLenPdf::2                      1                       # What write queue length does an incoming req see
system.mem_ctrls1.wrQLenPdf::3                      1                       # What write queue length does an incoming req see
system.mem_ctrls1.wrQLenPdf::4                      1                       # What write queue length does an incoming req see
system.mem_ctrls1.wrQLenPdf::5                      1                       # What write queue length does an incoming req see
system.mem_ctrls1.wrQLenPdf::6                      1                       # What write queue length does an incoming req see
system.mem_ctrls1.wrQLenPdf::7                      1                       # What write queue length does an incoming req see
system.mem_ctrls1.wrQLenPdf::8                      1                       # What write queue length does an incoming req see
system.mem_ctrls1.wrQLenPdf::9                      1                       # What write queue length does an incoming req see
system.mem_ctrls1.wrQLenPdf::10                     1                       # What write queue length does an incoming req see
system.mem_ctrls1.wrQLenPdf::11                     0                       # What write queue length does an incoming req see
system.mem_ctrls1.wrQLenPdf::12                     0                       # What write queue length does an incoming req see
system.mem_ctrls1.wrQLenPdf::13                     0                       # What write queue length does an incoming req see
system.mem_ctrls1.wrQLenPdf::14                     0                       # What write queue length does an incoming req see
system.mem_ctrls1.wrQLenPdf::15                     0                       # What write queue length does an incoming req see
system.mem_ctrls1.wrQLenPdf::16                     0                       # What write queue length does an incoming req see
system.mem_ctrls1.wrQLenPdf::17                     0                       # What write queue length does an incoming req see
system.mem_ctrls1.wrQLenPdf::18                     0                       # What write queue length does an incoming req see
system.mem_ctrls1.wrQLenPdf::19                     0                       # What write queue length does an incoming req see
system.mem_ctrls1.wrQLenPdf::20                     0                       # What write queue length does an incoming req see
system.mem_ctrls1.wrQLenPdf::21                     0                       # What write queue length does an incoming req see
system.mem_ctrls1.wrQLenPdf::22                     0                       # What write queue length does an incoming req see
system.mem_ctrls1.wrQLenPdf::23                     0                       # What write queue length does an incoming req see
system.mem_ctrls1.wrQLenPdf::24                     0                       # What write queue length does an incoming req see
system.mem_ctrls1.wrQLenPdf::25                     0                       # What write queue length does an incoming req see
system.mem_ctrls1.wrQLenPdf::26                     0                       # What write queue length does an incoming req see
system.mem_ctrls1.wrQLenPdf::27                     0                       # What write queue length does an incoming req see
system.mem_ctrls1.wrQLenPdf::28                     0                       # What write queue length does an incoming req see
system.mem_ctrls1.wrQLenPdf::29                     0                       # What write queue length does an incoming req see
system.mem_ctrls1.wrQLenPdf::30                     0                       # What write queue length does an incoming req see
system.mem_ctrls1.wrQLenPdf::31                     0                       # What write queue length does an incoming req see
system.mem_ctrls1.wrQLenPdf::32                     0                       # What write queue length does an incoming req see
system.mem_ctrls1.wrQLenPdf::33                     0                       # What write queue length does an incoming req see
system.mem_ctrls1.wrQLenPdf::34                     0                       # What write queue length does an incoming req see
system.mem_ctrls1.wrQLenPdf::35                     0                       # What write queue length does an incoming req see
system.mem_ctrls1.wrQLenPdf::36                     0                       # What write queue length does an incoming req see
system.mem_ctrls1.wrQLenPdf::37                     0                       # What write queue length does an incoming req see
system.mem_ctrls1.wrQLenPdf::38                     0                       # What write queue length does an incoming req see
system.mem_ctrls1.wrQLenPdf::39                     0                       # What write queue length does an incoming req see
system.mem_ctrls1.wrQLenPdf::40                     0                       # What write queue length does an incoming req see
system.mem_ctrls1.wrQLenPdf::41                     0                       # What write queue length does an incoming req see
system.mem_ctrls1.wrQLenPdf::42                     0                       # What write queue length does an incoming req see
system.mem_ctrls1.wrQLenPdf::43                     0                       # What write queue length does an incoming req see
system.mem_ctrls1.wrQLenPdf::44                     0                       # What write queue length does an incoming req see
system.mem_ctrls1.wrQLenPdf::45                     0                       # What write queue length does an incoming req see
system.mem_ctrls1.wrQLenPdf::46                     0                       # What write queue length does an incoming req see
system.mem_ctrls1.wrQLenPdf::47                     0                       # What write queue length does an incoming req see
system.mem_ctrls1.wrQLenPdf::48                     0                       # What write queue length does an incoming req see
system.mem_ctrls1.wrQLenPdf::49                     0                       # What write queue length does an incoming req see
system.mem_ctrls1.wrQLenPdf::50                     0                       # What write queue length does an incoming req see
system.mem_ctrls1.wrQLenPdf::51                     0                       # What write queue length does an incoming req see
system.mem_ctrls1.wrQLenPdf::52                     0                       # What write queue length does an incoming req see
system.mem_ctrls1.wrQLenPdf::53                     0                       # What write queue length does an incoming req see
system.mem_ctrls1.wrQLenPdf::54                     0                       # What write queue length does an incoming req see
system.mem_ctrls1.wrQLenPdf::55                     0                       # What write queue length does an incoming req see
system.mem_ctrls1.wrQLenPdf::56                     0                       # What write queue length does an incoming req see
system.mem_ctrls1.wrQLenPdf::57                     0                       # What write queue length does an incoming req see
system.mem_ctrls1.wrQLenPdf::58                     0                       # What write queue length does an incoming req see
system.mem_ctrls1.wrQLenPdf::59                     0                       # What write queue length does an incoming req see
system.mem_ctrls1.wrQLenPdf::60                     0                       # What write queue length does an incoming req see
system.mem_ctrls1.wrQLenPdf::61                     0                       # What write queue length does an incoming req see
system.mem_ctrls1.wrQLenPdf::62                     0                       # What write queue length does an incoming req see
system.mem_ctrls1.wrQLenPdf::63                     0                       # What write queue length does an incoming req see
system.mem_ctrls1.bytesPerActivate::samples        24744                       # Bytes accessed per row activation
system.mem_ctrls1.bytesPerActivate::mean   100.205626                       # Bytes accessed per row activation
system.mem_ctrls1.bytesPerActivate::gmean    78.842557                       # Bytes accessed per row activation
system.mem_ctrls1.bytesPerActivate::stdev   111.872603                       # Bytes accessed per row activation
system.mem_ctrls1.bytesPerActivate::0-127        20762     83.91%     83.91% # Bytes accessed per row activation
system.mem_ctrls1.bytesPerActivate::128-255         2208      8.92%     92.83% # Bytes accessed per row activation
system.mem_ctrls1.bytesPerActivate::256-383          382      1.54%     94.37% # Bytes accessed per row activation
system.mem_ctrls1.bytesPerActivate::384-511          180      0.73%     95.10% # Bytes accessed per row activation
system.mem_ctrls1.bytesPerActivate::512-639         1136      4.59%     99.69% # Bytes accessed per row activation
system.mem_ctrls1.bytesPerActivate::640-767           63      0.25%     99.95% # Bytes accessed per row activation
system.mem_ctrls1.bytesPerActivate::768-895            5      0.02%     99.97% # Bytes accessed per row activation
system.mem_ctrls1.bytesPerActivate::896-1023            1      0.00%     99.97% # Bytes accessed per row activation
system.mem_ctrls1.bytesPerActivate::1024-1151            7      0.03%    100.00% # Bytes accessed per row activation
system.mem_ctrls1.bytesPerActivate::total        24744                       # Bytes accessed per row activation
system.mem_ctrls1.totQLat                  1178899000                       # Total ticks spent queuing
system.mem_ctrls1.totMemAccLat             1905349000                       # Total ticks spent from burst creation until serviced by the DRAM
system.mem_ctrls1.totBusLat                 193720000                       # Total ticks spent in databus transfers
system.mem_ctrls1.avgQLat                    30427.91                       # Average queueing delay per DRAM burst
system.mem_ctrls1.avgBusLat                   5000.00                       # Average bus latency per DRAM burst
system.mem_ctrls1.avgMemAccLat               49177.91                       # Average memory access latency per DRAM burst
system.mem_ctrls1.avgRdBW                      171.65                       # Average DRAM read bandwidth in MiByte/s
system.mem_ctrls1.avgWrBW                        0.00                       # Average achieved write bandwidth in MiByte/s
system.mem_ctrls1.avgRdBWSys                   171.66                       # Average system read bandwidth in MiByte/s
system.mem_ctrls1.avgWrBWSys                     0.05                       # Average system write bandwidth in MiByte/s
system.mem_ctrls1.peakBW                     12800.00                       # Theoretical peak bandwidth in MiByte/s
system.mem_ctrls1.busUtil                        1.34                       # Data bus utilization in percentage
system.mem_ctrls1.busUtilRead                    1.34                       # Data bus utilization in percentage for reads
system.mem_ctrls1.busUtilWrite                   0.00                       # Data bus utilization in percentage for writes
system.mem_ctrls1.avgRdQLen                      1.30                       # Average read queue length when enqueuing
system.mem_ctrls1.avgWrQLen                      1.19                       # Average write queue length when enqueuing
system.mem_ctrls1.readRowHits                   13999                       # Number of row buffer hits during reads
system.mem_ctrls1.writeRowHits                      0                       # Number of row buffer hits during writes
system.mem_ctrls1.readRowHitRate                36.13                       # Row buffer hit rate for reads
system.mem_ctrls1.writeRowHitRate                0.00                       # Row buffer hit rate for writes
system.mem_ctrls1.avgGap                    372691.39                       # Average gap between requests
system.mem_ctrls1.pageHitRate                   36.12                       # Row buffer hit rate, read and write combined
system.mem_ctrls1_0.actEnergy                82716900                       # Energy for activate commands per rank (pJ)
system.mem_ctrls1_0.preEnergy                43961280                       # Energy for precharge commands per rank (pJ)
system.mem_ctrls1_0.readEnergy              137337900                       # Energy for read commands per rank (pJ)
system.mem_ctrls1_0.writeEnergy                     0                       # Energy for write commands per rank (pJ)
system.mem_ctrls1_0.refreshEnergy        1009853520.000000                       # Energy for refresh commands per rank (pJ)
system.mem_ctrls1_0.actBackEnergy           474080970                       # Energy for active background per rank (pJ)
system.mem_ctrls1_0.preBackEnergy            31427520                       # Energy for precharge background per rank (pJ)
system.mem_ctrls1_0.actPowerDownEnergy     4279205460                       # Energy for active power-down per rank (pJ)
system.mem_ctrls1_0.prePowerDownEnergy      644803200                       # Energy for precharge power-down per rank (pJ)
system.mem_ctrls1_0.selfRefreshEnergy       588958470                       # Energy for self refresh per rank (pJ)
system.mem_ctrls1_0.totalEnergy            7292544180                       # Total energy per rank (pJ)
system.mem_ctrls1_0.averagePower           504.836532                       # Core power per rank (mW)
system.mem_ctrls1_0.totalIdleTime         13322578000                       # Total Idle time Per DRAM Rank
system.mem_ctrls1_0.memoryStateTime::IDLE     31239000                       # Time in different power states
system.mem_ctrls1_0.memoryStateTime::REF    427708000                       # Time in different power states
system.mem_ctrls1_0.memoryStateTime::SREF   2260023250                       # Time in different power states
system.mem_ctrls1_0.memoryStateTime::PRE_PDN   1679330500                       # Time in different power states
system.mem_ctrls1_0.memoryStateTime::ACT    662932250                       # Time in different power states
system.mem_ctrls1_0.memoryStateTime::ACT_PDN   9384123500                       # Time in different power states
system.mem_ctrls1_1.actEnergy                93962400                       # Energy for activate commands per rank (pJ)
system.mem_ctrls1_1.preEnergy                49942200                       # Energy for precharge commands per rank (pJ)
system.mem_ctrls1_1.readEnergy              139294260                       # Energy for read commands per rank (pJ)
system.mem_ctrls1_1.writeEnergy                     0                       # Energy for write commands per rank (pJ)
system.mem_ctrls1_1.refreshEnergy        1023375600.000000                       # Energy for refresh commands per rank (pJ)
system.mem_ctrls1_1.actBackEnergy           489684720                       # Energy for active background per rank (pJ)
system.mem_ctrls1_1.preBackEnergy            38366400                       # Energy for precharge background per rank (pJ)
system.mem_ctrls1_1.actPowerDownEnergy     4325733990                       # Energy for active power-down per rank (pJ)
system.mem_ctrls1_1.prePowerDownEnergy      650821920                       # Energy for precharge power-down per rank (pJ)
system.mem_ctrls1_1.selfRefreshEnergy       548187975                       # Energy for self refresh per rank (pJ)
system.mem_ctrls1_1.totalEnergy            7359575115                       # Total energy per rank (pJ)
system.mem_ctrls1_1.averagePower           509.476842                       # Core power per rank (mW)
system.mem_ctrls1_1.totalIdleTime         13258774500                       # Total Idle time Per DRAM Rank
system.mem_ctrls1_1.memoryStateTime::IDLE     31377000                       # Time in different power states
system.mem_ctrls1_1.memoryStateTime::REF    433452000                       # Time in different power states
system.mem_ctrls1_1.memoryStateTime::SREF   2090005250                       # Time in different power states
system.mem_ctrls1_1.memoryStateTime::PRE_PDN   1694768000                       # Time in different power states
system.mem_ctrls1_1.memoryStateTime::ACT    709615000                       # Time in different power states
system.mem_ctrls1_1.memoryStateTime::ACT_PDN   9486139250                       # Time in different power states
system.mem_ctrls2.pwrStateResidencyTicks::UNDEFINED  14445356500                       # Cumulative time (in ticks) in various power states
system.mem_ctrls2.bytes_read::ruby.dir_cntrl2      2489408                       # Number of bytes read from this memory
system.mem_ctrls2.bytes_read::total           2489408                       # Number of bytes read from this memory
system.mem_ctrls2.bytes_written::ruby.dir_cntrl2         1088                       # Number of bytes written to this memory
system.mem_ctrls2.bytes_written::total           1088                       # Number of bytes written to this memory
system.mem_ctrls2.num_reads::ruby.dir_cntrl2        38897                       # Number of read requests responded to by this memory
system.mem_ctrls2.num_reads::total              38897                       # Number of read requests responded to by this memory
system.mem_ctrls2.num_writes::ruby.dir_cntrl2           17                       # Number of write requests responded to by this memory
system.mem_ctrls2.num_writes::total                17                       # Number of write requests responded to by this memory
system.mem_ctrls2.bw_read::ruby.dir_cntrl2    172332749                       # Total read bandwidth from this memory (bytes/s)
system.mem_ctrls2.bw_read::total            172332749                       # Total read bandwidth from this memory (bytes/s)
system.mem_ctrls2.bw_write::ruby.dir_cntrl2        75318                       # Write bandwidth from this memory (bytes/s)
system.mem_ctrls2.bw_write::total               75318                       # Write bandwidth from this memory (bytes/s)
system.mem_ctrls2.bw_total::ruby.dir_cntrl2    172408068                       # Total bandwidth to/from this memory (bytes/s)
system.mem_ctrls2.bw_total::total           172408068                       # Total bandwidth to/from this memory (bytes/s)
system.mem_ctrls2.readReqs                      38897                       # Number of read requests accepted
system.mem_ctrls2.writeReqs                        17                       # Number of write requests accepted
system.mem_ctrls2.readBursts                    38897                       # Number of DRAM read bursts, including those serviced by the write queue
system.mem_ctrls2.writeBursts                      17                       # Number of DRAM write bursts, including those merged in the write queue
system.mem_ctrls2.bytesReadDRAM               2489408                       # Total number of bytes read from DRAM
system.mem_ctrls2.bytesReadWrQ                      0                       # Total number of bytes read from write queue
system.mem_ctrls2.bytesWritten                      0                       # Total number of bytes written to DRAM
system.mem_ctrls2.bytesReadSys                2489408                       # Total read bytes from the system interface side
system.mem_ctrls2.bytesWrittenSys                1088                       # Total written bytes from the system interface side
system.mem_ctrls2.servicedByWrQ                     0                       # Number of DRAM read bursts serviced by the write queue
system.mem_ctrls2.mergedWrBursts                    0                       # Number of DRAM write bursts merged with an existing one
system.mem_ctrls2.neitherReadNorWriteReqs            0                       # Number of requests that are neither read nor write
system.mem_ctrls2.perBankRdBursts::0             2396                       # Per bank write bursts
system.mem_ctrls2.perBankRdBursts::1             2385                       # Per bank write bursts
system.mem_ctrls2.perBankRdBursts::2             2341                       # Per bank write bursts
system.mem_ctrls2.perBankRdBursts::3             2593                       # Per bank write bursts
system.mem_ctrls2.perBankRdBursts::4             2471                       # Per bank write bursts
system.mem_ctrls2.perBankRdBursts::5             2255                       # Per bank write bursts
system.mem_ctrls2.perBankRdBursts::6             2534                       # Per bank write bursts
system.mem_ctrls2.perBankRdBursts::7             2286                       # Per bank write bursts
system.mem_ctrls2.perBankRdBursts::8             2382                       # Per bank write bursts
system.mem_ctrls2.perBankRdBursts::9             2557                       # Per bank write bursts
system.mem_ctrls2.perBankRdBursts::10            2457                       # Per bank write bursts
system.mem_ctrls2.perBankRdBursts::11            2395                       # Per bank write bursts
system.mem_ctrls2.perBankRdBursts::12            2474                       # Per bank write bursts
system.mem_ctrls2.perBankRdBursts::13            2589                       # Per bank write bursts
system.mem_ctrls2.perBankRdBursts::14            2507                       # Per bank write bursts
system.mem_ctrls2.perBankRdBursts::15            2275                       # Per bank write bursts
system.mem_ctrls2.perBankWrBursts::0                0                       # Per bank write bursts
system.mem_ctrls2.perBankWrBursts::1                0                       # Per bank write bursts
system.mem_ctrls2.perBankWrBursts::2                0                       # Per bank write bursts
system.mem_ctrls2.perBankWrBursts::3                0                       # Per bank write bursts
system.mem_ctrls2.perBankWrBursts::4                0                       # Per bank write bursts
system.mem_ctrls2.perBankWrBursts::5                0                       # Per bank write bursts
system.mem_ctrls2.perBankWrBursts::6                0                       # Per bank write bursts
system.mem_ctrls2.perBankWrBursts::7                0                       # Per bank write bursts
system.mem_ctrls2.perBankWrBursts::8                0                       # Per bank write bursts
system.mem_ctrls2.perBankWrBursts::9                0                       # Per bank write bursts
system.mem_ctrls2.perBankWrBursts::10               0                       # Per bank write bursts
system.mem_ctrls2.perBankWrBursts::11               0                       # Per bank write bursts
system.mem_ctrls2.perBankWrBursts::12               0                       # Per bank write bursts
system.mem_ctrls2.perBankWrBursts::13               0                       # Per bank write bursts
system.mem_ctrls2.perBankWrBursts::14               0                       # Per bank write bursts
system.mem_ctrls2.perBankWrBursts::15               0                       # Per bank write bursts
system.mem_ctrls2.numRdRetry                        0                       # Number of times read queue was full causing retry
system.mem_ctrls2.numWrRetry                        0                       # Number of times write queue was full causing retry
system.mem_ctrls2.totGap                  14443662500                       # Total gap between requests
system.mem_ctrls2.readPktSize::0                    0                       # Read request sizes (log2)
system.mem_ctrls2.readPktSize::1                    0                       # Read request sizes (log2)
system.mem_ctrls2.readPktSize::2                    0                       # Read request sizes (log2)
system.mem_ctrls2.readPktSize::3                    0                       # Read request sizes (log2)
system.mem_ctrls2.readPktSize::4                    0                       # Read request sizes (log2)
system.mem_ctrls2.readPktSize::5                    0                       # Read request sizes (log2)
system.mem_ctrls2.readPktSize::6                38897                       # Read request sizes (log2)
system.mem_ctrls2.writePktSize::0                   0                       # Write request sizes (log2)
system.mem_ctrls2.writePktSize::1                   0                       # Write request sizes (log2)
system.mem_ctrls2.writePktSize::2                   0                       # Write request sizes (log2)
system.mem_ctrls2.writePktSize::3                   0                       # Write request sizes (log2)
system.mem_ctrls2.writePktSize::4                   0                       # Write request sizes (log2)
system.mem_ctrls2.writePktSize::5                   0                       # Write request sizes (log2)
system.mem_ctrls2.writePktSize::6                  17                       # Write request sizes (log2)
system.mem_ctrls2.rdQLenPdf::0                  28971                       # What read queue length does an incoming req see
system.mem_ctrls2.rdQLenPdf::1                   6811                       # What read queue length does an incoming req see
system.mem_ctrls2.rdQLenPdf::2                   1984                       # What read queue length does an incoming req see
system.mem_ctrls2.rdQLenPdf::3                    731                       # What read queue length does an incoming req see
system.mem_ctrls2.rdQLenPdf::4                    258                       # What read queue length does an incoming req see
system.mem_ctrls2.rdQLenPdf::5                     77                       # What read queue length does an incoming req see
system.mem_ctrls2.rdQLenPdf::6                     29                       # What read queue length does an incoming req see
system.mem_ctrls2.rdQLenPdf::7                     14                       # What read queue length does an incoming req see
system.mem_ctrls2.rdQLenPdf::8                      5                       # What read queue length does an incoming req see
system.mem_ctrls2.rdQLenPdf::9                      6                       # What read queue length does an incoming req see
system.mem_ctrls2.rdQLenPdf::10                     6                       # What read queue length does an incoming req see
system.mem_ctrls2.rdQLenPdf::11                     3                       # What read queue length does an incoming req see
system.mem_ctrls2.rdQLenPdf::12                     2                       # What read queue length does an incoming req see
system.mem_ctrls2.rdQLenPdf::13                     0                       # What read queue length does an incoming req see
system.mem_ctrls2.rdQLenPdf::14                     0                       # What read queue length does an incoming req see
system.mem_ctrls2.rdQLenPdf::15                     0                       # What read queue length does an incoming req see
system.mem_ctrls2.rdQLenPdf::16                     0                       # What read queue length does an incoming req see
system.mem_ctrls2.rdQLenPdf::17                     0                       # What read queue length does an incoming req see
system.mem_ctrls2.rdQLenPdf::18                     0                       # What read queue length does an incoming req see
system.mem_ctrls2.rdQLenPdf::19                     0                       # What read queue length does an incoming req see
system.mem_ctrls2.rdQLenPdf::20                     0                       # What read queue length does an incoming req see
system.mem_ctrls2.rdQLenPdf::21                     0                       # What read queue length does an incoming req see
system.mem_ctrls2.rdQLenPdf::22                     0                       # What read queue length does an incoming req see
system.mem_ctrls2.rdQLenPdf::23                     0                       # What read queue length does an incoming req see
system.mem_ctrls2.rdQLenPdf::24                     0                       # What read queue length does an incoming req see
system.mem_ctrls2.rdQLenPdf::25                     0                       # What read queue length does an incoming req see
system.mem_ctrls2.rdQLenPdf::26                     0                       # What read queue length does an incoming req see
system.mem_ctrls2.rdQLenPdf::27                     0                       # What read queue length does an incoming req see
system.mem_ctrls2.rdQLenPdf::28                     0                       # What read queue length does an incoming req see
system.mem_ctrls2.rdQLenPdf::29                     0                       # What read queue length does an incoming req see
system.mem_ctrls2.rdQLenPdf::30                     0                       # What read queue length does an incoming req see
system.mem_ctrls2.rdQLenPdf::31                     0                       # What read queue length does an incoming req see
system.mem_ctrls2.wrQLenPdf::0                      1                       # What write queue length does an incoming req see
system.mem_ctrls2.wrQLenPdf::1                      1                       # What write queue length does an incoming req see
system.mem_ctrls2.wrQLenPdf::2                      1                       # What write queue length does an incoming req see
system.mem_ctrls2.wrQLenPdf::3                      1                       # What write queue length does an incoming req see
system.mem_ctrls2.wrQLenPdf::4                      1                       # What write queue length does an incoming req see
system.mem_ctrls2.wrQLenPdf::5                      1                       # What write queue length does an incoming req see
system.mem_ctrls2.wrQLenPdf::6                      1                       # What write queue length does an incoming req see
system.mem_ctrls2.wrQLenPdf::7                      1                       # What write queue length does an incoming req see
system.mem_ctrls2.wrQLenPdf::8                      1                       # What write queue length does an incoming req see
system.mem_ctrls2.wrQLenPdf::9                      1                       # What write queue length does an incoming req see
system.mem_ctrls2.wrQLenPdf::10                     1                       # What write queue length does an incoming req see
system.mem_ctrls2.wrQLenPdf::11                     1                       # What write queue length does an incoming req see
system.mem_ctrls2.wrQLenPdf::12                     1                       # What write queue length does an incoming req see
system.mem_ctrls2.wrQLenPdf::13                     1                       # What write queue length does an incoming req see
system.mem_ctrls2.wrQLenPdf::14                     1                       # What write queue length does an incoming req see
system.mem_ctrls2.wrQLenPdf::15                     1                       # What write queue length does an incoming req see
system.mem_ctrls2.wrQLenPdf::16                     1                       # What write queue length does an incoming req see
system.mem_ctrls2.wrQLenPdf::17                     0                       # What write queue length does an incoming req see
system.mem_ctrls2.wrQLenPdf::18                     0                       # What write queue length does an incoming req see
system.mem_ctrls2.wrQLenPdf::19                     0                       # What write queue length does an incoming req see
system.mem_ctrls2.wrQLenPdf::20                     0                       # What write queue length does an incoming req see
system.mem_ctrls2.wrQLenPdf::21                     0                       # What write queue length does an incoming req see
system.mem_ctrls2.wrQLenPdf::22                     0                       # What write queue length does an incoming req see
system.mem_ctrls2.wrQLenPdf::23                     0                       # What write queue length does an incoming req see
system.mem_ctrls2.wrQLenPdf::24                     0                       # What write queue length does an incoming req see
system.mem_ctrls2.wrQLenPdf::25                     0                       # What write queue length does an incoming req see
system.mem_ctrls2.wrQLenPdf::26                     0                       # What write queue length does an incoming req see
system.mem_ctrls2.wrQLenPdf::27                     0                       # What write queue length does an incoming req see
system.mem_ctrls2.wrQLenPdf::28                     0                       # What write queue length does an incoming req see
system.mem_ctrls2.wrQLenPdf::29                     0                       # What write queue length does an incoming req see
system.mem_ctrls2.wrQLenPdf::30                     0                       # What write queue length does an incoming req see
system.mem_ctrls2.wrQLenPdf::31                     0                       # What write queue length does an incoming req see
system.mem_ctrls2.wrQLenPdf::32                     0                       # What write queue length does an incoming req see
system.mem_ctrls2.wrQLenPdf::33                     0                       # What write queue length does an incoming req see
system.mem_ctrls2.wrQLenPdf::34                     0                       # What write queue length does an incoming req see
system.mem_ctrls2.wrQLenPdf::35                     0                       # What write queue length does an incoming req see
system.mem_ctrls2.wrQLenPdf::36                     0                       # What write queue length does an incoming req see
system.mem_ctrls2.wrQLenPdf::37                     0                       # What write queue length does an incoming req see
system.mem_ctrls2.wrQLenPdf::38                     0                       # What write queue length does an incoming req see
system.mem_ctrls2.wrQLenPdf::39                     0                       # What write queue length does an incoming req see
system.mem_ctrls2.wrQLenPdf::40                     0                       # What write queue length does an incoming req see
system.mem_ctrls2.wrQLenPdf::41                     0                       # What write queue length does an incoming req see
system.mem_ctrls2.wrQLenPdf::42                     0                       # What write queue length does an incoming req see
system.mem_ctrls2.wrQLenPdf::43                     0                       # What write queue length does an incoming req see
system.mem_ctrls2.wrQLenPdf::44                     0                       # What write queue length does an incoming req see
system.mem_ctrls2.wrQLenPdf::45                     0                       # What write queue length does an incoming req see
system.mem_ctrls2.wrQLenPdf::46                     0                       # What write queue length does an incoming req see
system.mem_ctrls2.wrQLenPdf::47                     0                       # What write queue length does an incoming req see
system.mem_ctrls2.wrQLenPdf::48                     0                       # What write queue length does an incoming req see
system.mem_ctrls2.wrQLenPdf::49                     0                       # What write queue length does an incoming req see
system.mem_ctrls2.wrQLenPdf::50                     0                       # What write queue length does an incoming req see
system.mem_ctrls2.wrQLenPdf::51                     0                       # What write queue length does an incoming req see
system.mem_ctrls2.wrQLenPdf::52                     0                       # What write queue length does an incoming req see
system.mem_ctrls2.wrQLenPdf::53                     0                       # What write queue length does an incoming req see
system.mem_ctrls2.wrQLenPdf::54                     0                       # What write queue length does an incoming req see
system.mem_ctrls2.wrQLenPdf::55                     0                       # What write queue length does an incoming req see
system.mem_ctrls2.wrQLenPdf::56                     0                       # What write queue length does an incoming req see
system.mem_ctrls2.wrQLenPdf::57                     0                       # What write queue length does an incoming req see
system.mem_ctrls2.wrQLenPdf::58                     0                       # What write queue length does an incoming req see
[...]
system.ruby.L2Cache_Controller.NP.L1_GETS |        8470      6.32%      6.32% |        8219      6.13%     12.45% |        7980      5.95%     18.40% |        8359      6.24%     24.64% |        8120      6.06%     30.70% |        8316      6.20%     36.90% |        8386      6.26%     43.15% |        8414      6.28%     49.43% |        8512      6.35%     55.78% |        8316      6.20%     61.98% |        8414      6.28%     68.26% |        8456      6.31%     74.57% |        8638      6.44%     81.01% |        8582      6.40%     87.42% |        8428      6.29%     93.70% |        8442      6.30%    100.00%
system.ruby.L2Cache_Controller.NP.L1_GETS::total       134052                      
system.ruby.L2Cache_Controller.NP.L1_GETX |        9845      6.23%      6.23% |        9911      6.27%     12.50% |        9950      6.30%     18.80% |        9901      6.27%     25.07% |        9916      6.28%     31.34% |        9889      6.26%     37.60% |        9907      6.27%     43.87% |        9900      6.27%     50.14% |        9845      6.23%     56.37% |        9835      6.22%     62.60% |        9865      6.24%     68.84% |        9821      6.22%     75.06% |        9822      6.22%     81.27% |        9880      6.25%     87.53% |        9851      6.24%     93.76% |        9857      6.24%    100.00%
system.ruby.L2Cache_Controller.NP.L1_GETX::total       157995                      
system.ruby.L2Cache_Controller.SS.L1_GET_INSTR |         258      4.76%      4.76% |         156      2.88%      7.64% |         283      5.23%     12.87% |          78      1.44%     14.31% |         420      7.75%     22.06% |         108      1.99%     24.06% |         240      4.43%     28.49% |         155      2.86%     31.35% |         194      3.58%     34.93% |          92      1.70%     36.63% |         205      3.79%     40.42% |         183      3.38%     43.80% |         163      3.01%     46.81% |         171      3.16%     49.96% |        2584     47.71%     97.67% |         126      2.33%    100.00%
system.ruby.L2Cache_Controller.SS.L1_GET_INSTR::total         5416                      
system.ruby.L2Cache_Controller.SS.L1_GETS |           0      0.00%      0.00% |           0      0.00%      0.00% |          14     33.33%     33.33% |           0      0.00%     33.33% |           0      0.00%     33.33% |           0      0.00%     33.33% |           0      0.00%     33.33% |           0      0.00%     33.33% |          14     33.33%     66.67% |          14     33.33%    100.00% |           0      0.00%    100.00% |           0      0.00%    100.00% |           0      0.00%    100.00% |           0      0.00%    100.00% |           0      0.00%    100.00% |           0      0.00%    100.00%
system.ruby.L2Cache_Controller.SS.L1_GETS::total           42                      
system.ruby.L2Cache_Controller.SS.L1_GETX |          14      4.33%      4.33% |          14      4.33%      8.67% |          14      4.33%     13.00% |          28      8.67%     21.67% |          28      8.67%     30.34% |          28      8.67%     39.01% |          28      8.67%     47.68% |          28      8.67%     56.35% |          28      8.67%     65.02% |          28      8.67%     73.68% |          15      4.64%     78.33% |          28      8.67%     87.00% |          14      4.33%     91.33% |          14      4.33%     95.67% |           0      0.00%     95.67% |          14      4.33%    100.00%
system.ruby.L2Cache_Controller.SS.L1_GETX::total          323                      
system.ruby.L2Cache_Controller.SS.L1_UPGRADE |          28      3.71%      3.71% |          28      3.71%      7.42% |          56      7.42%     14.83% |          28      3.71%     18.54% |          28      3.71%     22.25% |          56      7.42%     29.67% |          56      7.42%     37.09% |          56      7.42%     44.50% |          56      7.42%     51.92% |          56      7.42%     59.34% |          69      9.14%     68.48% |          56      7.42%     75.89% |          56      7.42%     83.31% |          56      7.42%     90.73% |          42      5.56%     96.29% |          28      3.71%    100.00%
system.ruby.L2Cache_Controller.SS.L1_UPGRADE::total          755                      
system.ruby.L2Cache_Controller.SS.L2_Replacement_clean |          14      6.45%      6.45% |          17      7.83%     14.29% |          15      6.91%     21.20% |          17      7.83%     29.03% |           9      4.15%     33.18% |          14      6.45%     39.63% |          15      6.91%     46.54% |          16      7.37%     53.92% |          14      6.45%     60.37% |          12      5.53%     65.90% |           5      2.30%     68.20% |          14      6.45%     74.65% |          17      7.83%     82.49% |          13      5.99%     88.48% |          15      6.91%     95.39% |          10      4.61%    100.00%
system.ruby.L2Cache_Controller.SS.L2_Replacement_clean::total          217                      
system.ruby.L2Cache_Controller.M.L1_GET_INSTR |          14     25.00%     25.00% |           0      0.00%     25.00% |           0      0.00%     25.00% |           0      0.00%     25.00% |           0      0.00%     25.00% |           0      0.00%     25.00% |           0      0.00%     25.00% |           0      0.00%     25.00% |          14     25.00%     50.00% |          14     25.00%     75.00% |           0      0.00%     75.00% |           0      0.00%     75.00% |           0      0.00%     75.00% |           0      0.00%     75.00% |          14     25.00%    100.00% |           0      0.00%    100.00%
system.ruby.L2Cache_Controller.M.L1_GET_INSTR::total           56                      
system.ruby.L2Cache_Controller.M.L1_GETS |       46012      6.20%      6.20% |       46045      6.21%     12.41% |       46023      6.20%     18.62% |       46367      6.25%     24.87% |       45934      6.19%     31.06% |       45796      6.17%     37.24% |       45949      6.19%     43.43% |       46110      6.22%     49.65% |       46151      6.22%     55.87% |       45945      6.19%     62.06% |       48531      6.54%     68.61% |       46936      6.33%     74.93% |       46551      6.28%     81.21% |       46627      6.29%     87.50% |       47174      6.36%     93.86% |       45561      6.14%    100.00%
system.ruby.L2Cache_Controller.M.L1_GETS::total       741712                      
system.ruby.L2Cache_Controller.M.L1_GETX |        1000      5.56%      5.56% |        1102      6.13%     11.69% |        1035      5.75%     17.44% |         989      5.50%     22.94% |        1055      5.87%     28.80% |         974      5.41%     34.22% |         909      5.05%     39.27% |        1079      6.00%     45.27% |        1007      5.60%     50.87% |        1038      5.77%     56.64% |        2231     12.40%     69.04% |         975      5.42%     74.46% |         973      5.41%     79.87% |         867      4.82%     84.69% |        1659      9.22%     93.91% |        1095      6.09%    100.00%
system.ruby.L2Cache_Controller.M.L1_GETX::total        17988                      
system.ruby.L2Cache_Controller.M.L2_Replacement |           8      5.84%      5.84% |           7      5.11%     10.95% |          10      7.30%     18.25% |           8      5.84%     24.09% |           9      6.57%     30.66% |           7      5.11%     35.77% |          13      9.49%     45.26% |           6      4.38%     49.64% |           6      4.38%     54.01% |           4      2.92%     56.93% |           6      4.38%     61.31% |           6      4.38%     65.69% |          11      8.03%     73.72% |           7      5.11%     78.83% |          16     11.68%     90.51% |          13      9.49%    100.00%
system.ruby.L2Cache_Controller.M.L2_Replacement::total          137                      
system.ruby.L2Cache_Controller.M.L2_Replacement_clean |          38      6.68%      6.68% |          34      5.98%     12.65% |          36      6.33%     18.98% |          37      6.50%     25.48% |          29      5.10%     30.58% |          29      5.10%     35.68% |          40      7.03%     42.71% |          40      7.03%     49.74% |          50      8.79%     58.52% |          35      6.15%     64.67% |          33      5.80%     70.47% |          38      6.68%     77.15% |          33      5.80%     82.95% |          29      5.10%     88.05% |          37      6.50%     94.55% |          31      5.45%    100.00%
system.ruby.L2Cache_Controller.M.L2_Replacement_clean::total          569                      
system.ruby.L2Cache_Controller.MT.L1_GETS |          70      3.94%      3.94% |          70      3.94%      7.87% |          98      5.51%     13.39% |          98      5.51%     18.90% |          98      5.51%     24.41% |         140      7.87%     32.28% |         140      7.87%     40.16% |         140      7.87%     48.03% |         140      7.87%     55.91% |         140      7.87%     63.78% |         140      7.87%     71.65% |         140      7.87%     79.53% |         112      6.30%     85.83% |         112      6.30%     92.13% |          70      3.94%     96.06% |          70      3.94%    100.00%
system.ruby.L2Cache_Controller.MT.L1_GETS::total         1778                      
system.ruby.L2Cache_Controller.MT.L1_PUTX |       64403      6.21%      6.21% |       64353      6.21%     12.42% |       64066      6.18%     18.60% |       64678      6.24%     24.84% |       64089      6.18%     31.02% |       64024      6.18%     37.19% |       64199      6.19%     43.39% |       64554      6.23%     49.61% |       64574      6.23%     55.84% |       64185      6.19%     62.03% |       68090      6.57%     68.60% |       65236      6.29%     74.89% |       65046      6.27%     81.17% |       65020      6.27%     87.44% |       66188      6.38%     93.82% |       64032      6.18%    100.00%
system.ruby.L2Cache_Controller.MT.L1_PUTX::total      1036737                      
system.ruby.L2Cache_Controller.MT.L2_Replacement_clean |           0      0.00%      0.00% |           0      0.00%      0.00% |           1     33.33%     33.33% |           0      0.00%     33.33% |           0      0.00%     33.33% |           0      0.00%     33.33% |           0      0.00%     33.33% |           0      0.00%     33.33% |           0      0.00%     33.33% |           0      0.00%     33.33% |           1     33.33%     66.67% |           1     33.33%    100.00% |           0      0.00%    100.00% |           0      0.00%    100.00% |           0      0.00%    100.00% |           0      0.00%    100.00%
system.ruby.L2Cache_Controller.MT.L2_Replacement_clean::total            3                      
system.ruby.L2Cache_Controller.M_I.Mem_Ack |          60      6.48%      6.48% |          58      6.26%     12.74% |          62      6.70%     19.44% |          62      6.70%     26.13% |          47      5.08%     31.21% |          50      5.40%     36.61% |          68      7.34%     43.95% |          62      6.70%     50.65% |          70      7.56%     58.21% |          51      5.51%     63.71% |          45      4.86%     68.57% |          59      6.37%     74.95% |          61      6.59%     81.53% |          49      5.29%     86.83% |          68      7.34%     94.17% |          54      5.83%    100.00%
system.ruby.L2Cache_Controller.M_I.Mem_Ack::total          926                      
system.ruby.L2Cache_Controller.MCT_I.WB_Data |           0      0.00%      0.00% |           0      0.00%      0.00% |           1     50.00%     50.00% |           0      0.00%     50.00% |           0      0.00%     50.00% |           0      0.00%     50.00% |           0      0.00%     50.00% |           0      0.00%     50.00% |           0      0.00%     50.00% |           0      0.00%     50.00% |           0      0.00%     50.00% |           1     50.00%    100.00% |           0      0.00%    100.00% |           0      0.00%    100.00% |           0      0.00%    100.00% |           0      0.00%    100.00%
system.ruby.L2Cache_Controller.MCT_I.WB_Data::total            2                      
system.ruby.L2Cache_Controller.MCT_I.Ack_all |           0      0.00%      0.00% |           0      0.00%      0.00% |           0      0.00%      0.00% |           0      0.00%      0.00% |           0      0.00%      0.00% |           0      0.00%      0.00% |           0      0.00%      0.00% |           0      0.00%      0.00% |           0      0.00%      0.00% |           0      0.00%      0.00% |           1    100.00%    100.00% |           0      0.00%    100.00% |           0      0.00%    100.00% |           0      0.00%    100.00% |           0      0.00%    100.00% |           0      0.00%    100.00%
system.ruby.L2Cache_Controller.MCT_I.Ack_all::total            1                      
system.ruby.L2Cache_Controller.I_I.Ack_all |          14      6.45%      6.45% |          17      7.83%     14.29% |          15      6.91%     21.20% |          17      7.83%     29.03% |           9      4.15%     33.18% |          14      6.45%     39.63% |          15      6.91%     46.54% |          16      7.37%     53.92% |          14      6.45%     60.37% |          12      5.53%     65.90% |           5      2.30%     68.20% |          14      6.45%     74.65% |          17      7.83%     82.49% |          13      5.99%     88.48% |          15      6.91%     95.39% |          10      4.61%    100.00%
system.ruby.L2Cache_Controller.I_I.Ack_all::total          217                      
system.ruby.L2Cache_Controller.ISS.Mem_Data |        8470      6.32%      6.32% |        8219      6.13%     12.45% |        7980      5.95%     18.40% |        8359      6.24%     24.64% |        8120      6.06%     30.70% |        8316      6.20%     36.90% |        8386      6.26%     43.15% |        8414      6.28%     49.43% |        8512      6.35%     55.78% |        8316      6.20%     61.98% |        8414      6.28%     68.26% |        8456      6.31%     74.57% |        8638      6.44%     81.01% |        8582      6.40%     87.42% |        8428      6.29%     93.70% |        8442      6.30%    100.00%
system.ruby.L2Cache_Controller.ISS.Mem_Data::total       134052                      
system.ruby.L2Cache_Controller.IS.Mem_Data |        1303      6.31%      6.31% |        1330      6.44%     12.75% |        1456      7.05%     19.80% |        1246      6.03%     25.83% |        1316      6.37%     32.20% |        1288      6.24%     38.44% |        1261      6.11%     44.54% |        1260      6.10%     50.64% |        1330      6.44%     57.08% |        1134      5.49%     62.57% |        1232      5.96%     68.54% |        1233      5.97%     74.51% |        1204      5.83%     80.34% |        1274      6.17%     86.51% |        1470      7.12%     93.62% |        1317      6.38%    100.00%
system.ruby.L2Cache_Controller.IS.Mem_Data::total        20654                      
system.ruby.L2Cache_Controller.IM.Mem_Data |        9845      6.23%      6.23% |        9911      6.27%     12.50% |        9950      6.30%     18.80% |        9901      6.27%     25.07% |        9916      6.28%     31.34% |        9889      6.26%     37.60% |        9907      6.27%     43.87% |        9900      6.27%     50.14% |        9845      6.23%     56.37% |        9835      6.22%     62.60% |        9865      6.24%     68.84% |        9821      6.22%     75.06% |        9822      6.22%     81.27% |        9880      6.25%     87.53% |        9851      6.24%     93.76% |        9857      6.24%    100.00%
system.ruby.L2Cache_Controller.IM.Mem_Data::total       157995                      
system.ruby.L2Cache_Controller.SS_MB.Exclusive_Unblock |          42      3.90%      3.90% |          42      3.90%      7.79% |          70      6.49%     14.29% |          56      5.19%     19.48% |          56      5.19%     24.68% |          84      7.79%     32.47% |          84      7.79%     40.26% |          84      7.79%     48.05% |          84      7.79%     55.84% |          84      7.79%     63.64% |          84      7.79%     71.43% |          84      7.79%     79.22% |          70      6.49%     85.71% |          70      6.49%     92.21% |          42      3.90%     96.10% |          42      3.90%    100.00%
system.ruby.L2Cache_Controller.SS_MB.Exclusive_Unblock::total         1078                      
system.ruby.L2Cache_Controller.MT_MB.Exclusive_Unblock |       65327      6.21%      6.21% |       65277      6.21%     12.42% |       64988      6.18%     18.60% |       65616      6.24%     24.84% |       65025      6.18%     31.02% |       64975      6.18%     37.20% |       65151      6.19%     43.39% |       65503      6.23%     49.62% |       65515      6.23%     55.85% |       65134      6.19%     62.04% |       69041      6.56%     68.61% |       66188      6.29%     74.90% |       65984      6.27%     81.17% |       65956      6.27%     87.44% |       67112      6.38%     93.82% |       64955      6.18%    100.00%
system.ruby.L2Cache_Controller.MT_MB.Exclusive_Unblock::total      1051747                      
system.ruby.L2Cache_Controller.MT_IIB.WB_Data |          68      3.88%      3.88% |          70      4.00%      7.88% |          95      5.43%     13.31% |          96      5.48%     18.79% |          95      5.43%     24.21% |         139      7.94%     32.15% |         139      7.94%     40.09% |         136      7.77%     47.86% |         139      7.94%     55.80% |         139      7.94%     63.74% |         136      7.77%     71.50% |         140      8.00%     79.50% |         111      6.34%     85.84% |         111      6.34%     92.18% |          67      3.83%     96.00% |          70      4.00%    100.00%
system.ruby.L2Cache_Controller.MT_IIB.WB_Data::total         1751                      
system.ruby.L2Cache_Controller.MT_IIB.Unblock |           2      7.41%      7.41% |           0      0.00%      7.41% |           3     11.11%     18.52% |           2      7.41%     25.93% |           3     11.11%     37.04% |           1      3.70%     40.74% |           1      3.70%     44.44% |           4     14.81%     59.26% |           1      3.70%     62.96% |           1      3.70%     66.67% |           4     14.81%     81.48% |           0      0.00%     81.48% |           1      3.70%     85.19% |           1      3.70%     88.89% |           3     11.11%    100.00% |           0      0.00%    100.00%
system.ruby.L2Cache_Controller.MT_IIB.Unblock::total           27                      
system.ruby.L2Cache_Controller.MT_IB.WB_Data |           2      7.41%      7.41% |           0      0.00%      7.41% |           3     11.11%     18.52% |           2      7.41%     25.93% |           3     11.11%     37.04% |           1      3.70%     40.74% |           1      3.70%     44.44% |           4     14.81%     59.26% |           1      3.70%     62.96% |           1      3.70%     66.67% |           4     14.81%     81.48% |           0      0.00%     81.48% |           1      3.70%     85.19% |           1      3.70%     88.89% |           3     11.11%    100.00% |           0      0.00%    100.00%
system.ruby.L2Cache_Controller.MT_IB.WB_Data::total           27                      
system.ruby.L2Cache_Controller.MT_SB.Unblock |          68      3.88%      3.88% |          70      4.00%      7.88% |          95      5.43%     13.31% |          96      5.48%     18.79% |          95      5.43%     24.21% |         139      7.94%     32.15% |         139      7.94%     40.09% |         136      7.77%     47.86% |         139      7.94%     55.80% |         139      7.94%     63.74% |         136      7.77%     71.50% |         140      8.00%     79.50% |         111      6.34%     85.84% |         111      6.34%     92.18% |          67      3.83%     96.00% |          70      4.00%    100.00%
system.ruby.L2Cache_Controller.MT_SB.Unblock::total         1751                      

---------- End Simulation Statistics   ----------
