
---------- Begin Simulation Statistics ----------
sim_seconds                                  0.015959                       # Number of seconds simulated
sim_ticks                                 15959462000                       # Number of ticks simulated
final_tick                                15959462000                       # Number of ticks from beginning of simulation (restored from checkpoints and never reset)
sim_freq                                 1000000000000                       # Frequency of simulated ticks
host_inst_rate                                  58699                       # Simulator instruction rate (inst/s)
host_op_rate                                   101840                       # Simulator op (including micro ops) rate (op/s)
host_tick_rate                               20413282                       # Simulator tick rate (ticks/s)
host_mem_usage                                2042184                       # Number of bytes of host memory used
host_seconds                                   781.82                       # Real time elapsed on the host
sim_insts                                    45892079                       # Number of instructions simulated
sim_ops                                      79619998                       # Number of ops (including micro ops) simulated
system.voltage_domain.voltage                       1                       # Voltage in Volts
system.clk_domain.clock                          1000                       # Clock period in ticks
system.mem_ctrls0.pwrStateResidencyTicks::UNDEFINED  15959462000                       # Cumulative time (in ticks) in various power states
system.mem_ctrls0.bytes_read::ruby.dir_cntrl0     10024576                       # Number of bytes read from this memory
system.mem_ctrls0.bytes_read::total          10024576                       # Number of bytes read from this memory
system.mem_ctrls0.bytes_written::ruby.dir_cntrl0       981504                       # Number of bytes written to this memory
system.mem_ctrls0.bytes_written::total         981504                       # Number of bytes written to this memory
system.mem_ctrls0.num_reads::ruby.dir_cntrl0       156634                       # Number of read requests responded to by this memory
system.mem_ctrls0.num_reads::total             156634                       # Number of read requests responded to by this memory
system.mem_ctrls0.num_writes::ruby.dir_cntrl0        15336                       # Number of write requests responded to by this memory
system.mem_ctrls0.num_writes::total             15336                       # Number of write requests responded to by this memory
system.mem_ctrls0.bw_read::ruby.dir_cntrl0    628127439                       # Total read bandwidth from this memory (bytes/s)
system.mem_ctrls0.bw_read::total            628127439                       # Total read bandwidth from this memory (bytes/s)
system.mem_ctrls0.bw_write::ruby.dir_cntrl0     61499817                       # Write bandwidth from this memory (bytes/s)
system.mem_ctrls0.bw_write::total            61499817                       # Write bandwidth from this memory (bytes/s)
system.mem_ctrls0.bw_total::ruby.dir_cntrl0    689627257                       # Total bandwidth to/from this memory (bytes/s)
system.mem_ctrls0.bw_total::total           689627257                       # Total bandwidth to/from this memory (bytes/s)
system.mem_ctrls0.readReqs                     156634                       # Number of read requests accepted
system.mem_ctrls0.avgNetLat                      0.00                       # Average network latency to DRAM controller
system.mem_ctrls0.writeReqs                     15336                       # Number of write requests accepted
system.mem_ctrls0.readBursts                   156634                       # Number of DRAM read bursts, including those serviced by the write queue
system.mem_ctrls0.writeBursts                   15336                       # Number of DRAM write bursts, including those merged in the write queue
system.mem_ctrls0.bytesReadDRAM              10024064                       # Total number of bytes read from DRAM
system.mem_ctrls0.bytesReadWrQ                    512                       # Total number of bytes read from write queue
system.mem_ctrls0.bytesWritten                 980160                       # Total number of bytes written to DRAM
system.mem_ctrls0.bytesReadSys               10024576                       # Total read bytes from the system interface side
system.mem_ctrls0.bytesWrittenSys              981504                       # Total written bytes from the system interface side
system.mem_ctrls0.servicedByWrQ                     8                       # Number of DRAM read bursts serviced by the write queue
system.mem_ctrls0.mergedWrBursts                    0                       # Number of DRAM write bursts merged with an existing one
system.mem_ctrls0.neitherReadNorWriteReqs            0                       # Number of requests that are neither read nor write
system.mem_ctrls0.perBankRdBursts::0             9770                       # Per bank write bursts
system.mem_ctrls0.perBankRdBursts::1             9309                       # Per bank write bursts
system.mem_ctrls0.perBankRdBursts::2             9740                       # Per bank write bursts
system.mem_ctrls0.perBankRdBursts::3             9580                       # Per bank write bursts
system.mem_ctrls0.perBankRdBursts::4             9461                       # Per bank write bursts
system.mem_ctrls0.perBankRdBursts::5             9105                       # Per bank write bursts
system.mem_ctrls0.perBankRdBursts::6             9417                       # Per bank write bursts
system.mem_ctrls0.perBankRdBursts::7             9662                       # Per bank write bursts
system.mem_ctrls0.perBankRdBursts::8             9873                       # Per bank write bursts
system.mem_ctrls0.perBankRdBursts::9             9837                       # Per bank write bursts
system.mem_ctrls0.perBankRdBursts::10           10198                       # Per bank write bursts
system.mem_ctrls0.perBankRdBursts::11            9997                       # Per bank write bursts
system.mem_ctrls0.perBankRdBursts::12           10318                       # Per bank write bursts
system.mem_ctrls0.perBankRdBursts::13           10280                       # Per bank write bursts
system.mem_ctrls0.perBankRdBursts::14            9970                       # Per bank write bursts
system.mem_ctrls0.perBankRdBursts::15           10109                       # Per bank write bursts
system.mem_ctrls0.perBankWrBursts::0              965                       # Per bank write bursts
system.mem_ctrls0.perBankWrBursts::1              769                       # Per bank write bursts
system.mem_ctrls0.perBankWrBursts::2              935                       # Per bank write bursts
system.mem_ctrls0.perBankWrBursts::3              880                       # Per bank write bursts
system.mem_ctrls0.perBankWrBursts::4              790                       # Per bank write bursts
system.mem_ctrls0.perBankWrBursts::5              733                       # Per bank write bursts
system.mem_ctrls0.perBankWrBursts::6              798                       # Per bank write bursts
system.mem_ctrls0.perBankWrBursts::7              917                       # Per bank write bursts
system.mem_ctrls0.perBankWrBursts::8             1011                       # Per bank write bursts
system.mem_ctrls0.perBankWrBursts::9              960                       # Per bank write bursts
system.mem_ctrls0.perBankWrBursts::10            1086                       # Per bank write bursts
system.mem_ctrls0.perBankWrBursts::11            1029                       # Per bank write bursts
system.mem_ctrls0.perBankWrBursts::12            1114                       # Per bank write bursts
system.mem_ctrls0.perBankWrBursts::13            1174                       # Per bank write bursts
system.mem_ctrls0.perBankWrBursts::14            1081                       # Per bank write bursts
system.mem_ctrls0.perBankWrBursts::15            1073                       # Per bank write bursts
system.mem_ctrls0.numRdRetry                        0                       # Number of times read queue was full causing retry
system.mem_ctrls0.numWrRetry                        0                       # Number of times write queue was full causing retry
system.mem_ctrls0.totGap                  15958433000                       # Total gap between requests
system.mem_ctrls0.readPktSize::0                    0                       # Read request sizes (log2)
system.mem_ctrls0.readPktSize::1                    0                       # Read request sizes (log2)
system.mem_ctrls0.readPktSize::2                    0                       # Read request sizes (log2)
system.mem_ctrls0.readPktSize::3                    0                       # Read request sizes (log2)
system.mem_ctrls0.readPktSize::4                    0                       # Read request sizes (log2)
system.mem_ctrls0.readPktSize::5                    0                       # Read request sizes (log2)
system.mem_ctrls0.readPktSize::6               156634                       # Read request sizes (log2)
system.mem_ctrls0.writePktSize::0                   0                       # Write request sizes (log2)
system.mem_ctrls0.writePktSize::1                   0                       # Write request sizes (log2)
system.mem_ctrls0.writePktSize::2                   0                       # Write request sizes (log2)
system.mem_ctrls0.writePktSize::3                   0                       # Write request sizes (log2)
system.mem_ctrls0.writePktSize::4                   0                       # Write request sizes (log2)
system.mem_ctrls0.writePktSize::5                   0                       # Write request sizes (log2)
system.mem_ctrls0.writePktSize::6               15336                       # Write request sizes (log2)
system.mem_ctrls0.rdQLenPdf::0                  76072                       # What read queue length does an incoming req see
system.mem_ctrls0.rdQLenPdf::1                  40752                       # What read queue length does an incoming req see
system.mem_ctrls0.rdQLenPdf::2                  21160                       # What read queue length does an incoming req see
system.mem_ctrls0.rdQLenPdf::3                  10624                       # What read queue length does an incoming req see
system.mem_ctrls0.rdQLenPdf::4                   4861                       # What read queue length does an incoming req see
system.mem_ctrls0.rdQLenPdf::5                   2073                       # What read queue length does an incoming req see
system.mem_ctrls0.rdQLenPdf::6                    744                       # What read queue length does an incoming req see
system.mem_ctrls0.rdQLenPdf::7                    245                       # What read queue length does an incoming req see
system.mem_ctrls0.rdQLenPdf::8                     69                       # What read queue length does an incoming req see
system.mem_ctrls0.rdQLenPdf::9                     23                       # What read queue length does an incoming req see
system.mem_ctrls0.rdQLenPdf::10                     2                       # What read queue length does an incoming req see
system.mem_ctrls0.rdQLenPdf::11                     1                       # What read queue length does an incoming req see
system.mem_ctrls0.rdQLenPdf::12                     0                       # What read queue length does an incoming req see
system.mem_ctrls0.rdQLenPdf::13                     0                       # What read queue length does an incoming req see
system.mem_ctrls0.rdQLenPdf::14                     0                       # What read queue length does an incoming req see
system.mem_ctrls0.rdQLenPdf::15                     0                       # What read queue length does an incoming req see
system.mem_ctrls0.rdQLenPdf::16                     0                       # What read queue length does an incoming req see
system.mem_ctrls0.rdQLenPdf::17                     0                       # What read queue length does an incoming req see
system.mem_ctrls0.rdQLenPdf::18                     0                       # What read queue length does an incoming req see
system.mem_ctrls0.rdQLenPdf::19                     0                       # What read queue length does an incoming req see
system.mem_ctrls0.rdQLenPdf::20                     0                       # What read queue length does an incoming req see
system.mem_ctrls0.rdQLenPdf::21                     0                       # What read queue length does an incoming req see
system.mem_ctrls0.rdQLenPdf::22                     0                       # What read queue length does an incoming req see
system.mem_ctrls0.rdQLenPdf::23                     0                       # What read queue length does an incoming req see
system.mem_ctrls0.rdQLenPdf::24                     0                       # What read queue length does an incoming req see
system.mem_ctrls0.rdQLenPdf::25                     0                       # What read queue length does an incoming req see
system.mem_ctrls0.rdQLenPdf::26                     0                       # What read queue length does an incoming req see
system.mem_ctrls0.rdQLenPdf::27                     0                       # What read queue length does an incoming req see
system.mem_ctrls0.rdQLenPdf::28                     0                       # What read queue length does an incoming req see
system.mem_ctrls0.rdQLenPdf::29                     0                       # What read queue length does an incoming req see
system.mem_ctrls0.rdQLenPdf::30                     0                       # What read queue length does an incoming req see
system.mem_ctrls0.rdQLenPdf::31                     0                       # What read queue length does an incoming req see
system.mem_ctrls0.wrQLenPdf::0                      1                       # What write queue length does an incoming req see
system.mem_ctrls0.wrQLenPdf::1                      1                       # What write queue length does an incoming req see
system.mem_ctrls0.wrQLenPdf::2                      1                       # What write queue length does an incoming req see
system.mem_ctrls0.wrQLenPdf::3                      1                       # What write queue length does an incoming req see
system.mem_ctrls0.wrQLenPdf::4                      1                       # What write queue length does an incoming req see
system.mem_ctrls0.wrQLenPdf::5                      1                       # What write queue length does an incoming req see
system.mem_ctrls0.wrQLenPdf::6                      1                       # What write queue length does an incoming req see
system.mem_ctrls0.wrQLenPdf::7                      1                       # What write queue length does an incoming req see
system.mem_ctrls0.wrQLenPdf::8                      1                       # What write queue length does an incoming req see
system.mem_ctrls0.wrQLenPdf::9                      1                       # What write queue length does an incoming req see
system.mem_ctrls0.wrQLenPdf::10                     1                       # What write queue length does an incoming req see
system.mem_ctrls0.wrQLenPdf::11                     1                       # What write queue length does an incoming req see
system.mem_ctrls0.wrQLenPdf::12                     1                       # What write queue length does an incoming req see
system.mem_ctrls0.wrQLenPdf::13                     1                       # What write queue length does an incoming req see
system.mem_ctrls0.wrQLenPdf::14                     1                       # What write queue length does an incoming req see
system.mem_ctrls0.wrQLenPdf::15                   260                       # What write queue length does an incoming req see
system.mem_ctrls0.wrQLenPdf::16                   314                       # What write queue length does an incoming req see
system.mem_ctrls0.wrQLenPdf::17                   639                       # What write queue length does an incoming req see
system.mem_ctrls0.wrQLenPdf::18                   873                       # What write queue length does an incoming req see
system.mem_ctrls0.wrQLenPdf::19                   944                       # What write queue length does an incoming req see
system.mem_ctrls0.wrQLenPdf::20                   955                       # What write queue length does an incoming req see
system.mem_ctrls0.wrQLenPdf::21                   954                       # What write queue length does an incoming req see
system.mem_ctrls0.wrQLenPdf::22                   954                       # What write queue length does an incoming req see
system.mem_ctrls0.wrQLenPdf::23                   947                       # What write queue length does an incoming req see
system.mem_ctrls0.wrQLenPdf::24                   950                       # What write queue length does an incoming req see
system.mem_ctrls0.wrQLenPdf::25                   941                       # What write queue length does an incoming req see
system.mem_ctrls0.wrQLenPdf::26                   940                       # What write queue length does an incoming req see
system.mem_ctrls0.wrQLenPdf::27                   947                       # What write queue length does an incoming req see
system.mem_ctrls0.wrQLenPdf::28                   940                       # What write queue length does an incoming req see
system.mem_ctrls0.wrQLenPdf::29                   932                       # What write queue length does an incoming req see
system.mem_ctrls0.wrQLenPdf::30                   934                       # What write queue length does an incoming req see
system.mem_ctrls0.wrQLenPdf::31                   935                       # What write queue length does an incoming req see
system.mem_ctrls0.wrQLenPdf::32                   929                       # What write queue length does an incoming req see
system.mem_ctrls0.wrQLenPdf::33                    26                       # What write queue length does an incoming req see
system.mem_ctrls0.wrQLenPdf::34                     6                       # What write queue length does an incoming req see
system.mem_ctrls0.wrQLenPdf::35                     1                       # What write queue length does an incoming req see
system.mem_ctrls0.wrQLenPdf::36                     0                       # What write queue length does an incoming req see
system.mem_ctrls0.wrQLenPdf::37                     0                       # What write queue length does an incoming req see
system.mem_ctrls0.wrQLenPdf::38                     0                       # What write queue length does an incoming req see
system.mem_ctrls0.wrQLenPdf::39                     0                       # What write queue length does an incoming req see
system.mem_ctrls0.wrQLenPdf::40                     0                       # What write queue length does an incoming req see
system.mem_ctrls0.wrQLenPdf::41                     0                       # What write queue length does an incoming req see
system.mem_ctrls0.wrQLenPdf::42                     0                       # What write queue length does an incoming req see
system.mem_ctrls0.wrQLenPdf::43                     0                       # What write queue length does an incoming req see
system.mem_ctrls0.wrQLenPdf::44                     0                       # What write queue length does an incoming req see
system.mem_ctrls0.wrQLenPdf::45                     0                       # What write queue length does an incoming req see
system.mem_ctrls0.wrQLenPdf::46                     0                       # What write queue length does an incoming req see
system.mem_ctrls0.wrQLenPdf::47                     0                       # What write queue length does an incoming req see
system.mem_ctrls0.wrQLenPdf::48                     0                       # What write queue length does an incoming req see
system.mem_ctrls0.wrQLenPdf::49                     0                       # What write queue length does an incoming req see
system.mem_ctrls0.wrQLenPdf::50                     0                       # What write queue length does an incoming req see
system.mem_ctrls0.wrQLenPdf::51                     0                       # What write queue length does an incoming req see
system.mem_ctrls0.wrQLenPdf::52                     0                       # What write queue length does an incoming req see
system.mem_ctrls0.wrQLenPdf::53                     0                       # What write queue length does an incoming req see
system.mem_ctrls0.wrQLenPdf::54                     0                       # What write queue length does an incoming req see
system.mem_ctrls0.wrQLenPdf::55                     0                       # What write queue length does an incoming req see
system.mem_ctrls0.wrQLenPdf::56                     0                       # What write queue length does an incoming req see
system.mem_ctrls0.wrQLenPdf::57                     0                       # What write queue length does an incoming req see
system.mem_ctrls0.wrQLenPdf::58                     0                       # What write queue length does an incoming req see
system.mem_ctrls0.wrQLenPdf::59                     0                       # What write queue length does an incoming req see
system.mem_ctrls0.wrQLenPdf::60                     0                       # What write queue length does an incoming req see
system.mem_ctrls0.wrQLenPdf::61                     0                       # What write queue length does an incoming req see
system.mem_ctrls0.wrQLenPdf::62                     0                       # What write queue length does an incoming req see
system.mem_ctrls0.wrQLenPdf::63                     0                       # What write queue length does an incoming req see
system.mem_ctrls0.bytesPerActivate::samples        99443                       # Bytes accessed per row activation
system.mem_ctrls0.bytesPerActivate::mean   110.652816                       # Bytes accessed per row activation
system.mem_ctrls0.bytesPerActivate::gmean    86.478680                       # Bytes accessed per row activation
system.mem_ctrls0.bytesPerActivate::stdev   120.602493                       # Bytes accessed per row activation
system.mem_ctrls0.bytesPerActivate::0-127        72468     72.87%     72.87% # Bytes accessed per row activation
system.mem_ctrls0.bytesPerActivate::128-255        17991     18.09%     90.97% # Bytes accessed per row activation
system.mem_ctrls0.bytesPerActivate::256-383         3704      3.72%     94.69% # Bytes accessed per row activation
system.mem_ctrls0.bytesPerActivate::384-511         2175      2.19%     96.88% # Bytes accessed per row activation
system.mem_ctrls0.bytesPerActivate::512-639         1496      1.50%     98.38% # Bytes accessed per row activation
system.mem_ctrls0.bytesPerActivate::640-767          964      0.97%     99.35% # Bytes accessed per row activation
system.mem_ctrls0.bytesPerActivate::768-895          226      0.23%     99.58% # Bytes accessed per row activation
system.mem_ctrls0.bytesPerActivate::896-1023          191      0.19%     99.77% # Bytes accessed per row activation
system.mem_ctrls0.bytesPerActivate::1024-1151          228      0.23%    100.00% # Bytes accessed per row activation
system.mem_ctrls0.bytesPerActivate::total        99443                       # Bytes accessed per row activation
system.mem_ctrls0.rdPerTurnAround::samples          920                       # Reads before turning the bus around for writes
system.mem_ctrls0.rdPerTurnAround::mean    170.238043                       # Reads before turning the bus around for writes
system.mem_ctrls0.rdPerTurnAround::gmean    55.184273                       # Reads before turning the bus around for writes
system.mem_ctrls0.rdPerTurnAround::stdev  2260.506537                       # Reads before turning the bus around for writes
system.mem_ctrls0.rdPerTurnAround::0-4095          919     99.89%     99.89% # Reads before turning the bus around for writes
system.mem_ctrls0.rdPerTurnAround::65536-69631            1      0.11%    100.00% # Reads before turning the bus around for writes
system.mem_ctrls0.rdPerTurnAround::total          920                       # Reads before turning the bus around for writes
system.mem_ctrls0.wrPerTurnAround::samples          920                       # Writes before turning the bus around for reads
system.mem_ctrls0.wrPerTurnAround::mean     16.646739                       # Writes before turning the bus around for reads
system.mem_ctrls0.wrPerTurnAround::gmean    16.621488                       # Writes before turning the bus around for reads
system.mem_ctrls0.wrPerTurnAround::stdev     0.930788                       # Writes before turning the bus around for reads
system.mem_ctrls0.wrPerTurnAround::16             611     66.41%     66.41% # Writes before turning the bus around for reads
system.mem_ctrls0.wrPerTurnAround::17              29      3.15%     69.57% # Writes before turning the bus around for reads
system.mem_ctrls0.wrPerTurnAround::18             275     29.89%     99.46% # Writes before turning the bus around for reads
system.mem_ctrls0.wrPerTurnAround::19               4      0.43%     99.89% # Writes before turning the bus around for reads
system.mem_ctrls0.wrPerTurnAround::20               1      0.11%    100.00% # Writes before turning the bus around for reads
system.mem_ctrls0.wrPerTurnAround::total          920                       # Writes before turning the bus around for reads
system.mem_ctrls0.totQLat                  4540730250                       # Total ticks spent queuing
system.mem_ctrls0.totMemAccLat             7477467750                       # Total ticks spent from burst creation until serviced by the DRAM
system.mem_ctrls0.totBusLat                 783130000                       # Total ticks spent in databus transfers
system.mem_ctrls0.avgQLat                    28990.91                       # Average queueing delay per DRAM burst
system.mem_ctrls0.avgBusLat                   5000.00                       # Average bus latency per DRAM burst
system.mem_ctrls0.avgMemAccLat               47740.91                       # Average memory access latency per DRAM burst
system.mem_ctrls0.avgRdBW                      628.10                       # Average DRAM read bandwidth in MiByte/s
system.mem_ctrls0.avgWrBW                       61.42                       # Average achieved write bandwidth in MiByte/s
system.mem_ctrls0.avgRdBWSys                   628.13                       # Average system read bandwidth in MiByte/s
system.mem_ctrls0.avgWrBWSys                    61.50                       # Average system write bandwidth in MiByte/s
system.mem_ctrls0.peakBW                     12800.00                       # Theoretical peak bandwidth in MiByte/s
system.mem_ctrls0.busUtil                        5.39                       # Data bus utilization in percentage
system.mem_ctrls0.busUtilRead                    4.91                       # Data bus utilization in percentage for reads
system.mem_ctrls0.busUtilWrite                   0.48                       # Data bus utilization in percentage for writes
system.mem_ctrls0.avgRdQLen                      1.55                       # Average read queue length when enqueuing
system.mem_ctrls0.avgWrQLen                     12.74                       # Average write queue length when enqueuing
system.mem_ctrls0.readRowHits                   69004                       # Number of row buffer hits during reads
system.mem_ctrls0.writeRowHits                   3489                       # Number of row buffer hits during writes
system.mem_ctrls0.readRowHitRate                44.06                       # Row buffer hit rate for reads
system.mem_ctrls0.writeRowHitRate               22.75                       # Row buffer hit rate for writes
system.mem_ctrls0.avgGap                     92797.77                       # Average gap between requests
system.mem_ctrls0.pageHitRate                   42.16                       # Row buffer hit rate, read and write combined
system.mem_ctrls0_0.actEnergy               343134120                       # Energy for activate commands per rank (pJ)
system.mem_ctrls0_0.preEnergy               182361135                       # Energy for precharge commands per rank (pJ)
system.mem_ctrls0_0.readEnergy              542954160                       # Energy for read commands per rank (pJ)
system.mem_ctrls0_0.writeEnergy              35428140                       # Energy for write commands per rank (pJ)
system.mem_ctrls0_0.refreshEnergy        1253865600.000000                       # Energy for refresh commands per rank (pJ)
system.mem_ctrls0_0.actBackEnergy          1452534420                       # Energy for active background per rank (pJ)
system.mem_ctrls0_0.preBackEnergy            37813440                       # Energy for precharge background per rank (pJ)
system.mem_ctrls0_0.actPowerDownEnergy     5217876330                       # Energy for active power-down per rank (pJ)
system.mem_ctrls0_0.prePowerDownEnergy      324702720                       # Energy for precharge power-down per rank (pJ)
system.mem_ctrls0_0.selfRefreshEnergy       117371280                       # Energy for self refresh per rank (pJ)
system.mem_ctrls0_0.totalEnergy            9508256835                       # Total energy per rank (pJ)
system.mem_ctrls0_0.averagePower           595.775505                       # Core power per rank (mW)
system.mem_ctrls0_0.totalIdleTime         12674330000                       # Total Idle time Per DRAM Rank
system.mem_ctrls0_0.memoryStateTime::IDLE     30400750                       # Time in different power states
system.mem_ctrls0_0.memoryStateTime::REF    530712000                       # Time in different power states
system.mem_ctrls0_0.memoryStateTime::SREF    386832500                       # Time in different power states
system.mem_ctrls0_0.memoryStateTime::PRE_PDN    845360750                       # Time in different power states
system.mem_ctrls0_0.memoryStateTime::ACT   2723109500                       # Time in different power states
system.mem_ctrls0_0.memoryStateTime::ACT_PDN  11443046500                       # Time in different power states
system.mem_ctrls0_1.actEnergy               366924600                       # Energy for activate commands per rank (pJ)
system.mem_ctrls0_1.preEnergy               195025050                       # Energy for precharge commands per rank (pJ)
system.mem_ctrls0_1.readEnergy              575355480                       # Energy for read commands per rank (pJ)
system.mem_ctrls0_1.writeEnergy              44516160                       # Energy for write commands per rank (pJ)
system.mem_ctrls0_1.refreshEnergy        1260626640.000000                       # Energy for refresh commands per rank (pJ)
system.mem_ctrls0_1.actBackEnergy          1518775830                       # Energy for active background per rank (pJ)
system.mem_ctrls0_1.preBackEnergy            39781440                       # Energy for precharge background per rank (pJ)
system.mem_ctrls0_1.actPowerDownEnergy     5228860230                       # Energy for active power-down per rank (pJ)
system.mem_ctrls0_1.prePowerDownEnergy      307791840                       # Energy for precharge power-down per rank (pJ)
system.mem_ctrls0_1.selfRefreshEnergy        82229205                       # Energy for self refresh per rank (pJ)
system.mem_ctrls0_1.totalEnergy            9620296485                       # Total energy per rank (pJ)
system.mem_ctrls0_1.averagePower           602.795770                       # Core power per rank (mW)
system.mem_ctrls0_1.totalIdleTime         12522852500                       # Total Idle time Per DRAM Rank
system.mem_ctrls0_1.memoryStateTime::IDLE     36477250                       # Time in different power states
system.mem_ctrls0_1.memoryStateTime::REF    533602000                       # Time in different power states
system.mem_ctrls0_1.memoryStateTime::SREF    255970500                       # Time in different power states
system.mem_ctrls0_1.memoryStateTime::PRE_PDN    801326750                       # Time in different power states
system.mem_ctrls0_1.memoryStateTime::ACT   2864652000                       # Time in different power states
system.mem_ctrls0_1.memoryStateTime::ACT_PDN  11467433500                       # Time in different power states
system.mem_ctrls1.pwrStateResidencyTicks::UNDEFINED  15959462000                       # Cumulative time (in ticks) in various power states
system.mem_ctrls1.bytes_read::ruby.dir_cntrl1      9997312                       # Number of bytes read from this memory
system.mem_ctrls1.bytes_read::total           9997312                       # Number of bytes read from this memory
system.mem_ctrls1.bytes_written::ruby.dir_cntrl1       975872                       # Number of bytes written to this memory
system.mem_ctrls1.bytes_written::total         975872                       # Number of bytes written to this memory
system.mem_ctrls1.num_reads::ruby.dir_cntrl1       156208                       # Number of read requests responded to by this memory
system.mem_ctrls1.num_reads::total             156208                       # Number of read requests responded to by this memory
system.mem_ctrls1.num_writes::ruby.dir_cntrl1        15248                       # Number of write requests responded to by this memory
system.mem_ctrls1.num_writes::total             15248                       # Number of write requests responded to by this memory
system.mem_ctrls1.bw_read::ruby.dir_cntrl1    626419111                       # Total read bandwidth from this memory (bytes/s)
system.mem_ctrls1.bw_read::total            626419111                       # Total read bandwidth from this memory (bytes/s)
system.mem_ctrls1.bw_write::ruby.dir_cntrl1     61146923                       # Write bandwidth from this memory (bytes/s)
system.mem_ctrls1.bw_write::total            61146923                       # Write bandwidth from this memory (bytes/s)
system.mem_ctrls1.bw_total::ruby.dir_cntrl1    687566034                       # Total bandwidth to/from this memory (bytes/s)
system.mem_ctrls1.bw_total::total           687566034                       # Total bandwidth to/from this memory (bytes/s)
system.mem_ctrls1.readReqs                     156208                       # Number of read requests accepted
system.mem_ctrls1.avgNetLat                      0.00                       # Average network latency to DRAM controller
system.mem_ctrls1.writeReqs                     15248                       # Number of write requests accepted
system.mem_ctrls1.readBursts                   156208                       # Number of DRAM read bursts, including those serviced by the write queue
system.mem_ctrls1.writeBursts                   15248                       # Number of DRAM write bursts, including those merged in the write queue
system.mem_ctrls1.bytesReadDRAM               9996992                       # Total number of bytes read from DRAM
system.mem_ctrls1.bytesReadWrQ                    320                       # Total number of bytes read from write queue
system.mem_ctrls1.bytesWritten                 974912                       # Total number of bytes written to DRAM
system.mem_ctrls1.bytesReadSys                9997312                       # Total read bytes from the system interface side
system.mem_ctrls1.bytesWrittenSys              975872                       # Total written bytes from the system interface side
system.mem_ctrls1.servicedByWrQ                     5                       # Number of DRAM read bursts serviced by the write queue
system.mem_ctrls1.mergedWrBursts                    0                       # Number of DRAM write bursts merged with an existing one
system.mem_ctrls1.neitherReadNorWriteReqs            0                       # Number of requests that are neither read nor write
system.mem_ctrls1.perBankRdBursts::0             9760                       # Per bank write bursts
system.mem_ctrls1.perBankRdBursts::1             9253                       # Per bank write bursts
system.mem_ctrls1.perBankRdBursts::2             9683                       # Per bank write bursts
system.mem_ctrls1.perBankRdBursts::3             9506                       # Per bank write bursts
system.mem_ctrls1.perBankRdBursts::4             9500                       # Per bank write bursts
system.mem_ctrls1.perBankRdBursts::5             9100                       # Per bank write bursts
system.mem_ctrls1.perBankRdBursts::6             9372                       # Per bank write bursts
system.mem_ctrls1.perBankRdBursts::7             9613                       # Per bank write bursts
system.mem_ctrls1.perBankRdBursts::8             9853                       # Per bank write bursts
system.mem_ctrls1.perBankRdBursts::9             9803                       # Per bank write bursts
system.mem_ctrls1.perBankRdBursts::10           10159                       # Per bank write bursts
system.mem_ctrls1.perBankRdBursts::11            9978                       # Per bank write bursts
system.mem_ctrls1.perBankRdBursts::12           10339                       # Per bank write bursts
system.mem_ctrls1.perBankRdBursts::13           10286                       # Per bank write bursts
system.mem_ctrls1.perBankRdBursts::14            9929                       # Per bank write bursts
system.mem_ctrls1.perBankRdBursts::15           10069                       # Per bank write bursts
system.mem_ctrls1.perBankWrBursts::0              950                       # Per bank write bursts
system.mem_ctrls1.perBankWrBursts::1              735                       # Per bank write bursts
system.mem_ctrls1.perBankWrBursts::2              927                       # Per bank write bursts
system.mem_ctrls1.perBankWrBursts::3              868                       # Per bank write bursts
system.mem_ctrls1.perBankWrBursts::4              816                       # Per bank write bursts
system.mem_ctrls1.perBankWrBursts::5              741                       # Per bank write bursts
system.mem_ctrls1.perBankWrBursts::6              794                       # Per bank write bursts
system.mem_ctrls1.perBankWrBursts::7              877                       # Per bank write bursts
system.mem_ctrls1.perBankWrBursts::8             1002                       # Per bank write bursts
system.mem_ctrls1.perBankWrBursts::9              926                       # Per bank write bursts
system.mem_ctrls1.perBankWrBursts::10            1047                       # Per bank write bursts
system.mem_ctrls1.perBankWrBursts::11            1038                       # Per bank write bursts
system.mem_ctrls1.perBankWrBursts::12            1139                       # Per bank write bursts
system.mem_ctrls1.perBankWrBursts::13            1220                       # Per bank write bursts
system.mem_ctrls1.perBankWrBursts::14            1111                       # Per bank write bursts
system.mem_ctrls1.perBankWrBursts::15            1042                       # Per bank write bursts
system.mem_ctrls1.numRdRetry                        0                       # Number of times read queue was full causing retry
system.mem_ctrls1.numWrRetry                        0                       # Number of times write queue was full causing retry
system.mem_ctrls1.totGap                  15958879500                       # Total gap between requests
system.mem_ctrls1.readPktSize::0                    0                       # Read request sizes (log2)
system.mem_ctrls1.readPktSize::1                    0                       # Read request sizes (log2)
system.mem_ctrls1.readPktSize::2                    0                       # Read request sizes (log2)
system.mem_ctrls1.readPktSize::3                    0                       # Read request sizes (log2)
system.mem_ctrls1.readPktSize::4                    0                       # Read request sizes (log2)
system.mem_ctrls1.readPktSize::5                    0                       # Read request sizes (log2)
system.mem_ctrls1.readPktSize::6               156208                       # Read request sizes (log2)
system.mem_ctrls1.writePktSize::0                   0                       # Write request sizes (log2)
system.mem_ctrls1.writePktSize::1                   0                       # Write request sizes (log2)
system.mem_ctrls1.writePktSize::2                   0                       # Write request sizes (log2)
system.mem_ctrls1.writePktSize::3                   0                       # Write request sizes (log2)
system.mem_ctrls1.writePktSize::4                   0                       # Write request sizes (log2)
system.mem_ctrls1.writePktSize::5                   0                       # Write request sizes (log2)
system.mem_ctrls1.writePktSize::6               15248                       # Write request sizes (log2)
system.mem_ctrls1.rdQLenPdf::0                  75138                       # What read queue length does an incoming req see
system.mem_ctrls1.rdQLenPdf::1                  39922                       # What read queue length does an incoming req see
system.mem_ctrls1.rdQLenPdf::2                  21014                       # What read queue length does an incoming req see
system.mem_ctrls1.rdQLenPdf::3                  10986                       # What read queue length does an incoming req see
system.mem_ctrls1.rdQLenPdf::4                   5373                       # What read queue length does an incoming req see
system.mem_ctrls1.rdQLenPdf::5                   2450                       # What read queue length does an incoming req see
system.mem_ctrls1.rdQLenPdf::6                    912                       # What read queue length does an incoming req see
system.mem_ctrls1.rdQLenPdf::7                    305                       # What read queue length does an incoming req see
system.mem_ctrls1.rdQLenPdf::8                     84                       # What read queue length does an incoming req see
system.mem_ctrls1.rdQLenPdf::9                     18                       # What read queue length does an incoming req see
system.mem_ctrls1.rdQLenPdf::10                     1                       # What read queue length does an incoming req see
system.mem_ctrls1.rdQLenPdf::11                     0                       # What read queue length does an incoming req see
system.mem_ctrls1.rdQLenPdf::12                     0                       # What read queue length does an incoming req see
system.mem_ctrls1.rdQLenPdf::13                     0                       # What read queue length does an incoming req see
system.mem_ctrls1.rdQLenPdf::14                     0                       # What read queue length does an incoming req see
system.mem_ctrls1.rdQLenPdf::15                     0                       # What read queue length does an incoming req see
system.mem_ctrls1.rdQLenPdf::16                     0                       # What read queue length does an incoming req see
system.mem_ctrls1.rdQLenPdf::17                     0                       # What read queue length does an incoming req see
system.mem_ctrls1.rdQLenPdf::18                     0                       # What read queue length does an incoming req see
system.mem_ctrls1.rdQLenPdf::19                     0                       # What read queue length does an incoming req see
system.mem_ctrls1.rdQLenPdf::20                     0                       # What read queue length does an incoming req see
system.mem_ctrls1.rdQLenPdf::21                     0                       # What read queue length does an incoming req see
system.mem_ctrls1.rdQLenPdf::22                     0                       # What read queue length does an incoming req see
system.mem_ctrls1.rdQLenPdf::23                     0                       # What read queue length does an incoming req see
system.mem_ctrls1.rdQLenPdf::24                     0                       # What read queue length does an incoming req see
system.mem_ctrls1.rdQLenPdf::25                     0                       # What read queue length does an incoming req see
system.mem_ctrls1.rdQLenPdf::26                     0                       # What read queue length does an incoming req see
system.mem_ctrls1.rdQLenPdf::27                     0                       # What read queue length does an incoming req see
system.mem_ctrls1.rdQLenPdf::28                     0                       # What read queue length does an incoming req see
system.mem_ctrls1.rdQLenPdf::29                     0                       # What read queue length does an incoming req see
system.mem_ctrls1.rdQLenPdf::30                     0                       # What read queue length does an incoming req see
system.mem_ctrls1.rdQLenPdf::31                     0                       # What read queue length does an incoming req see
system.mem_ctrls1.wrQLenPdf::0                      1                       # What write queue length does an incoming req see
system.mem_ctrls1.wrQLenPdf::1                      1                       # What write queue length does an incoming req see
system.mem_ctrls1.wrQLenPdf::2                      1                       # What write queue length does an incoming req see
system.mem_ctrls1.wrQLenPdf::3                      1                       # What write queue length does an incoming req see
system.mem_ctrls1.wrQLenPdf::4                      1                       # What write queue length does an incoming req see
system.mem_ctrls1.wrQLenPdf::5                      1                       # What write queue length does an incoming req see
system.mem_ctrls1.wrQLenPdf::6                      1                       # What write queue length does an incoming req see
system.mem_ctrls1.wrQLenPdf::7                      1                       # What write queue length does an incoming req see
system.mem_ctrls1.wrQLenPdf::8                      1                       # What write queue length does an incoming req see
system.mem_ctrls1.wrQLenPdf::9                      1                       # What write queue length does an incoming req see
system.mem_ctrls1.wrQLenPdf::10                     1                       # What write queue length does an incoming req see
system.mem_ctrls1.wrQLenPdf::11                     1                       # What write queue length does an incoming req see
system.mem_ctrls1.wrQLenPdf::12                     1                       # What write queue length does an incoming req see
system.mem_ctrls1.wrQLenPdf::13                     1                       # What write queue length does an incoming req see
system.mem_ctrls1.wrQLenPdf::14                     1                       # What write queue length does an incoming req see
system.mem_ctrls1.wrQLenPdf::15                   249                       # What write queue length does an incoming req see
system.mem_ctrls1.wrQLenPdf::16                   305                       # What write queue length does an incoming req see
system.mem_ctrls1.wrQLenPdf::17                   623                       # What write queue length does an incoming req see
system.mem_ctrls1.wrQLenPdf::18                   885                       # What write queue length does an incoming req see
system.mem_ctrls1.wrQLenPdf::19                   931                       # What write queue length does an incoming req see
system.mem_ctrls1.wrQLenPdf::20                   951                       # What write queue length does an incoming req see
system.mem_ctrls1.wrQLenPdf::21                   955                       # What write queue length does an incoming req see
system.mem_ctrls1.wrQLenPdf::22                   944                       # What write queue length does an incoming req see
system.mem_ctrls1.wrQLenPdf::23                   939                       # What write queue length does an incoming req see
system.mem_ctrls1.wrQLenPdf::24                   941                       # What write queue length does an incoming req see
system.mem_ctrls1.wrQLenPdf::25                   940                       # What write queue length does an incoming req see
system.mem_ctrls1.wrQLenPdf::26                   940                       # What write queue length does an incoming req see
system.mem_ctrls1.wrQLenPdf::27                   936                       # What write queue length does an incoming req see
system.mem_ctrls1.wrQLenPdf::28                   933                       # What write queue length does an incoming req see
system.mem_ctrls1.wrQLenPdf::29                   937                       # What write queue length does an incoming req see
system.mem_ctrls1.wrQLenPdf::30                   928                       # What write queue length does an incoming req see
system.mem_ctrls1.wrQLenPdf::31                   926                       # What write queue length does an incoming req see
system.mem_ctrls1.wrQLenPdf::32                   932                       # What write queue length does an incoming req see
system.mem_ctrls1.wrQLenPdf::33                    32                       # What write queue length does an incoming req see
system.mem_ctrls1.wrQLenPdf::34                     5                       # What write queue length does an incoming req see
system.mem_ctrls1.wrQLenPdf::35                     1                       # What write queue length does an incoming req see
system.mem_ctrls1.wrQLenPdf::36                     0                       # What write queue length does an incoming req see
system.mem_ctrls1.wrQLenPdf::37                     0                       # What write queue length does an incoming req see
system.mem_ctrls1.wrQLenPdf::38                     0                       # What write queue length does an incoming req see
system.mem_ctrls1.wrQLenPdf::39                     0                       # What write queue length does an incoming req see
system.mem_ctrls1.wrQLenPdf::40                     0                       # What write queue length does an incoming req see
system.mem_ctrls1.wrQLenPdf::41                     0                       # What write queue length does an incoming req see
system.mem_ctrls1.wrQLenPdf::42                     0                       # What write queue length does an incoming req see
system.mem_ctrls1.wrQLenPdf::43                     0                       # What write queue length does an incoming req see
system.mem_ctrls1.wrQLenPdf::44                     0                       # What write queue length does an incoming req see
system.mem_ctrls1.wrQLenPdf::45                     0                       # What write queue length does an incoming req see
system.mem_ctrls1.wrQLenPdf::46                     0                       # What write queue length does an incoming req see
system.mem_ctrls1.wrQLenPdf::47                     0                       # What write queue length does an incoming req see
system.mem_ctrls1.wrQLenPdf::48                     0                       # What write queue length does an incoming req see
system.mem_ctrls1.wrQLenPdf::49                     0                       # What write queue length does an incoming req see
system.mem_ctrls1.wrQLenPdf::50                     0                       # What write queue length does an incoming req see
system.mem_ctrls1.wrQLenPdf::51                     0                       # What write queue length does an incoming req see
system.mem_ctrls1.wrQLenPdf::52                     0                       # What write queue length does an incoming req see
system.mem_ctrls1.wrQLenPdf::53                     0                       # What write queue length does an incoming req see
system.mem_ctrls1.wrQLenPdf::54                     0                       # What write queue length does an incoming req see
system.mem_ctrls1.wrQLenPdf::55                     0                       # What write queue length does an incoming req see
system.mem_ctrls1.wrQLenPdf::56                     0                       # What write queue length does an incoming req see
system.mem_ctrls1.wrQLenPdf::57                     0                       # What write queue length does an incoming req see
system.mem_ctrls1.wrQLenPdf::58                     0                       # What write queue length does an incoming req see
system.mem_ctrls1.wrQLenPdf::59                     0                       # What write queue length does an incoming req see
system.mem_ctrls1.wrQLenPdf::60                     0                       # What write queue length does an incoming req see
system.mem_ctrls1.wrQLenPdf::61                     0                       # What write queue length does an incoming req see
system.mem_ctrls1.wrQLenPdf::62                     0                       # What write queue length does an incoming req see
system.mem_ctrls1.wrQLenPdf::63                     0                       # What write queue length does an incoming req see
system.mem_ctrls1.bytesPerActivate::samples        98823                       # Bytes accessed per row activation
system.mem_ctrls1.bytesPerActivate::mean   111.021928                       # Bytes accessed per row activation
system.mem_ctrls1.bytesPerActivate::gmean    86.549682                       # Bytes accessed per row activation
system.mem_ctrls1.bytesPerActivate::stdev   121.890394                       # Bytes accessed per row activation
system.mem_ctrls1.bytesPerActivate::0-127        72021     72.88%     72.88% # Bytes accessed per row activation
system.mem_ctrls1.bytesPerActivate::128-255        17842     18.05%     90.93% # Bytes accessed per row activation
system.mem_ctrls1.bytesPerActivate::256-383         3608      3.65%     94.58% # Bytes accessed per row activation
system.mem_ctrls1.bytesPerActivate::384-511         2271      2.30%     96.88% # Bytes accessed per row activation
system.mem_ctrls1.bytesPerActivate::512-639         1431      1.45%     98.33% # Bytes accessed per row activation
system.mem_ctrls1.bytesPerActivate::640-767          968      0.98%     99.31% # Bytes accessed per row activation
system.mem_ctrls1.bytesPerActivate::768-895          225      0.23%     99.54% # Bytes accessed per row activation
system.mem_ctrls1.bytesPerActivate::896-1023          206      0.21%     99.75% # Bytes accessed per row activation
system.mem_ctrls1.bytesPerActivate::1024-1151          251      0.25%    100.00% # Bytes accessed per row activation
system.mem_ctrls1.bytesPerActivate::total        98823                       # Bytes accessed per row activation
system.mem_ctrls1.rdPerTurnAround::samples          916                       # Reads before turning the bus around for writes
system.mem_ctrls1.rdPerTurnAround::mean    170.527293                       # Reads before turning the bus around for writes
system.mem_ctrls1.rdPerTurnAround::gmean    54.435243                       # Reads before turning the bus around for writes
system.mem_ctrls1.rdPerTurnAround::stdev  2281.825315                       # Reads before turning the bus around for writes
system.mem_ctrls1.rdPerTurnAround::0-4095          915     99.89%     99.89% # Reads before turning the bus around for writes
system.mem_ctrls1.rdPerTurnAround::65536-69631            1      0.11%    100.00% # Reads before turning the bus around for writes
system.mem_ctrls1.rdPerTurnAround::total          916                       # Reads before turning the bus around for writes
system.mem_ctrls1.wrPerTurnAround::samples          916                       # Writes before turning the bus around for reads
system.mem_ctrls1.wrPerTurnAround::mean     16.629913                       # Writes before turning the bus around for reads
system.mem_ctrls1.wrPerTurnAround::gmean    16.604916                       # Writes before turning the bus around for reads
system.mem_ctrls1.wrPerTurnAround::stdev     0.926560                       # Writes before turning the bus around for reads
system.mem_ctrls1.wrPerTurnAround::16             615     67.14%     67.14% # Writes before turning the bus around for reads
system.mem_ctrls1.wrPerTurnAround::17              35      3.82%     70.96% # Writes before turning the bus around for reads
system.mem_ctrls1.wrPerTurnAround::18             256     27.95%     98.91% # Writes before turning the bus around for reads
system.mem_ctrls1.wrPerTurnAround::19              10      1.09%    100.00% # Writes before turning the bus around for reads
system.mem_ctrls1.wrPerTurnAround::total          916                       # Writes before turning the bus around for reads
system.mem_ctrls1.totQLat                  4705072250                       # Total ticks spent queuing
system.mem_ctrls1.totMemAccLat             7633878500                       # Total ticks spent from burst creation until serviced by the DRAM
system.mem_ctrls1.totBusLat                 781015000                       # Total ticks spent in databus transfers
system.mem_ctrls1.avgQLat                    30121.52                       # Average queueing delay per DRAM burst
system.mem_ctrls1.avgBusLat                   5000.00                       # Average bus latency per DRAM burst
system.mem_ctrls1.avgMemAccLat               48871.52                       # Average memory access latency per DRAM burst
system.mem_ctrls1.avgRdBW                      626.40                       # Average DRAM read bandwidth in MiByte/s
system.mem_ctrls1.avgWrBW                       61.09                       # Average achieved write bandwidth in MiByte/s
system.mem_ctrls1.avgRdBWSys                   626.42                       # Average system read bandwidth in MiByte/s
system.mem_ctrls1.avgWrBWSys                    61.15                       # Average system write bandwidth in MiByte/s
system.mem_ctrls1.peakBW                     12800.00                       # Theoretical peak bandwidth in MiByte/s
system.mem_ctrls1.busUtil                        5.37                       # Data bus utilization in percentage
system.mem_ctrls1.busUtilRead                    4.89                       # Data bus utilization in percentage for reads
system.mem_ctrls1.busUtilWrite                   0.48                       # Data bus utilization in percentage for writes
system.mem_ctrls1.avgRdQLen                      1.55                       # Average read queue length when enqueuing
system.mem_ctrls1.avgWrQLen                     12.80                       # Average write queue length when enqueuing
system.mem_ctrls1.readRowHits                   69144                       # Number of row buffer hits during reads
system.mem_ctrls1.writeRowHits                   3463                       # Number of row buffer hits during writes
system.mem_ctrls1.readRowHitRate                44.27                       # Row buffer hit rate for reads
system.mem_ctrls1.writeRowHitRate               22.71                       # Row buffer hit rate for writes
system.mem_ctrls1.avgGap                     93078.57                       # Average gap between requests
system.mem_ctrls1.pageHitRate                   42.35                       # Row buffer hit rate, read and write combined
system.mem_ctrls1_0.actEnergy               340499460                       # Energy for activate commands per rank (pJ)
system.mem_ctrls1_0.preEnergy               180964575                       # Energy for precharge commands per rank (pJ)
system.mem_ctrls1_0.readEnergy              541119180                       # Energy for read commands per rank (pJ)
system.mem_ctrls1_0.writeEnergy              35015760                       # Energy for write commands per rank (pJ)
system.mem_ctrls1_0.refreshEnergy        1250792400.000000                       # Energy for refresh commands per rank (pJ)
system.mem_ctrls1_0.actBackEnergy          1452148530                       # Energy for active background per rank (pJ)
system.mem_ctrls1_0.preBackEnergy            37658400                       # Energy for precharge background per rank (pJ)
system.mem_ctrls1_0.actPowerDownEnergy     5209630710                       # Energy for active power-down per rank (pJ)
system.mem_ctrls1_0.prePowerDownEnergy      318713280                       # Energy for precharge power-down per rank (pJ)
system.mem_ctrls1_0.selfRefreshEnergy       125231445                       # Energy for self refresh per rank (pJ)
system.mem_ctrls1_0.totalEnergy            9492208830                       # Total energy per rank (pJ)
system.mem_ctrls1_0.averagePower           594.769957                       # Core power per rank (mW)
system.mem_ctrls1_0.totalIdleTime         12676145250                       # Total Idle time Per DRAM Rank
system.mem_ctrls1_0.memoryStateTime::IDLE     29974000                       # Time in different power states
system.mem_ctrls1_0.memoryStateTime::REF    529442000                       # Time in different power states
system.mem_ctrls1_0.memoryStateTime::SREF    421278750                       # Time in different power states
system.mem_ctrls1_0.memoryStateTime::PRE_PDN    829875250                       # Time in different power states
system.mem_ctrls1_0.memoryStateTime::ACT   2723900750                       # Time in different power states
system.mem_ctrls1_0.memoryStateTime::ACT_PDN  11424991250                       # Time in different power states
system.mem_ctrls1_1.actEnergy               365139600                       # Energy for activate commands per rank (pJ)
system.mem_ctrls1_1.preEnergy               194064915                       # Energy for precharge commands per rank (pJ)
system.mem_ctrls1_1.readEnergy              574170240                       # Energy for read commands per rank (pJ)
system.mem_ctrls1_1.writeEnergy              44500500                       # Energy for write commands per rank (pJ)
system.mem_ctrls1_1.refreshEnergy        1265543760.000000                       # Energy for refresh commands per rank (pJ)
system.mem_ctrls1_1.actBackEnergy          1515626010                       # Energy for active background per rank (pJ)
system.mem_ctrls1_1.preBackEnergy            35212320                       # Energy for precharge background per rank (pJ)
system.mem_ctrls1_1.actPowerDownEnergy     5265886860                       # Energy for active power-down per rank (pJ)
system.mem_ctrls1_1.prePowerDownEnergy      279640800                       # Energy for precharge power-down per rank (pJ)
system.mem_ctrls1_1.selfRefreshEnergy        90459420                       # Energy for self refresh per rank (pJ)
system.mem_ctrls1_1.totalEnergy            9630691395                       # Total energy per rank (pJ)
system.mem_ctrls1_1.averagePower           603.447102                       # Core power per rank (mW)
system.mem_ctrls1_1.totalIdleTime         12543553000                       # Total Idle time Per DRAM Rank
system.mem_ctrls1_1.memoryStateTime::IDLE     23985250                       # Time in different power states
system.mem_ctrls1_1.memoryStateTime::REF    535742000                       # Time in different power states
system.mem_ctrls1_1.memoryStateTime::SREF    266797500                       # Time in different power states
system.mem_ctrls1_1.memoryStateTime::PRE_PDN    728085250                       # Time in different power states
system.mem_ctrls1_1.memoryStateTime::ACT   2856181750                       # Time in different power states
system.mem_ctrls1_1.memoryStateTime::ACT_PDN  11548670250                       # Time in different power states
system.mem_ctrls2.pwrStateResidencyTicks::UNDEFINED  15959462000                       # Cumulative time (in ticks) in various power states
system.mem_ctrls2.bytes_read::ruby.dir_cntrl2     10011200                       # Number of bytes read from this memory
system.mem_ctrls2.bytes_read::total          10011200                       # Number of bytes read from this memory
system.mem_ctrls2.bytes_written::ruby.dir_cntrl2       981440                       # Number of bytes written to this memory
system.mem_ctrls2.bytes_written::total         981440                       # Number of bytes written to this memory
system.mem_ctrls2.num_reads::ruby.dir_cntrl2       156425                       # Number of read requests responded to by this memory
system.mem_ctrls2.num_reads::total             156425                       # Number of read requests responded to by this memory
system.mem_ctrls2.num_writes::ruby.dir_cntrl2        15335                       # Number of write requests responded to by this memory
system.mem_ctrls2.num_writes::total             15335                       # Number of write requests responded to by this memory
system.mem_ctrls2.bw_read::ruby.dir_cntrl2    627289316                       # Total read bandwidth from this memory (bytes/s)
system.mem_ctrls2.bw_read::total            627289316                       # Total read bandwidth from this memory (bytes/s)
system.mem_ctrls2.bw_write::ruby.dir_cntrl2     61495807                       # Write bandwidth from this memory (bytes/s)
system.mem_ctrls2.bw_write::total            61495807                       # Write bandwidth from this memory (bytes/s)
system.mem_ctrls2.bw_total::ruby.dir_cntrl2    688785123                       # Total bandwidth to/from this memory (bytes/s)
system.mem_ctrls2.bw_total::total           688785123                       # Total bandwidth to/from this memory (bytes/s)
system.mem_ctrls2.readReqs                     156425                       # Number of read requests accepted
system.mem_ctrls2.avgNetLat                      0.00                       # Average network latency to DRAM controller
system.mem_ctrls2.writeReqs                     15335                       # Number of write requests accepted
system.mem_ctrls2.readBursts                   156425                       # Number of DRAM read bursts, including those serviced by the write queue
system.mem_ctrls2.writeBursts                   15335                       # Number of DRAM write bursts, including those merged in the write queue
system.mem_ctrls2.bytesReadDRAM              10010560                       # Total number of bytes read from DRAM
system.mem_ctrls2.bytesReadWrQ                    640                       # Total number of bytes read from write queue
system.mem_ctrls2.bytesWritten                 980096                       # Total number of bytes written to DRAM
system.mem_ctrls2.bytesReadSys               10011200                       # Total read bytes from the system interface side
system.mem_ctrls2.bytesWrittenSys              981440                       # Total written bytes from the system interface side
system.mem_ctrls2.servicedByWrQ                    10                       # Number of DRAM read bursts serviced by the write queue
system.mem_ctrls2.mergedWrBursts                    0                       # Number of DRAM write bursts merged with an existing one
system.mem_ctrls2.neitherReadNorWriteReqs            0                       # Number of requests that are neither read nor write
system.mem_ctrls2.perBankRdBursts::0             9703                       # Per bank write bursts
system.mem_ctrls2.perBankRdBursts::1             9301                       # Per bank write bursts
system.mem_ctrls2.perBankRdBursts::2             9672                       # Per bank write bursts
system.mem_ctrls2.perBankRdBursts::3             9530                       # Per bank write bursts
system.mem_ctrls2.perBankRdBursts::4             9489                       # Per bank write bursts
system.mem_ctrls2.perBankRdBursts::5             9093                       # Per bank write bursts
system.mem_ctrls2.perBankRdBursts::6             9386                       # Per bank write bursts
system.mem_ctrls2.perBankRdBursts::7             9642                       # Per bank write bursts
system.mem_ctrls2.perBankRdBursts::8             9853                       # Per bank write bursts
system.mem_ctrls2.perBankRdBursts::9             9834                       # Per bank write bursts
system.mem_ctrls2.perBankRdBursts::10           10186                       # Per bank write bursts
system.mem_ctrls2.perBankRdBursts::11            9967                       # Per bank write bursts
system.mem_ctrls2.perBankRdBursts::12           10325                       # Per bank write bursts
system.mem_ctrls2.perBankRdBursts::13           10382                       # Per bank write bursts
system.mem_ctrls2.perBankRdBursts::14            9907                       # Per bank write bursts
system.mem_ctrls2.perBankRdBursts::15           10145                       # Per bank write bursts
system.mem_ctrls2.perBankWrBursts::0              960                       # Per bank write bursts
system.mem_ctrls2.perBankWrBursts::1              760                       # Per bank write bursts
system.mem_ctrls2.perBankWrBursts::2              909                       # Per bank write bursts
system.mem_ctrls2.perBankWrBursts::3              901                       # Per bank write bursts
system.mem_ctrls2.perBankWrBursts::4              816                       # Per bank write bursts
system.mem_ctrls2.perBankWrBursts::5              711                       # Per bank write bursts
system.mem_ctrls2.perBankWrBursts::6              812                       # Per bank write bursts
system.mem_ctrls2.perBankWrBursts::7              879                       # Per bank write bursts
system.mem_ctrls2.perBankWrBursts::8             1047                       # Per bank write bursts
system.mem_ctrls2.perBankWrBursts::9              935                       # Per bank write bursts
system.mem_ctrls2.perBankWrBursts::10            1054                       # Per bank write bursts
system.mem_ctrls2.perBankWrBursts::11            1007                       # Per bank write bursts
system.mem_ctrls2.perBankWrBursts::12            1130                       # Per bank write bursts
system.mem_ctrls2.perBankWrBursts::13            1255                       # Per bank write bursts
system.mem_ctrls2.perBankWrBursts::14            1074                       # Per bank write bursts
system.mem_ctrls2.perBankWrBursts::15            1064                       # Per bank write bursts
system.mem_ctrls2.numRdRetry                        0                       # Number of times read queue was full causing retry
system.mem_ctrls2.numWrRetry                        0                       # Number of times write queue was full causing retry
system.mem_ctrls2.totGap                  15958556000                       # Total gap between requests
system.mem_ctrls2.readPktSize::0                    0                       # Read request sizes (log2)
system.mem_ctrls2.readPktSize::1                    0                       # Read request sizes (log2)
system.mem_ctrls2.readPktSize::2                    0                       # Read request sizes (log2)
system.mem_ctrls2.readPktSize::3                    0                       # Read request sizes (log2)
system.mem_ctrls2.readPktSize::4                    0                       # Read request sizes (log2)
system.mem_ctrls2.readPktSize::5                    0                       # Read request sizes (log2)
system.mem_ctrls2.readPktSize::6               156425                       # Read request sizes (log2)
system.mem_ctrls2.writePktSize::0                   0                       # Write request sizes (log2)
system.mem_ctrls2.writePktSize::1                   0                       # Write request sizes (log2)
system.mem_ctrls2.writePktSize::2                   0                       # Write request sizes (log2)
system.mem_ctrls2.writePktSize::3                   0                       # Write request sizes (log2)
system.mem_ctrls2.writePktSize::4                   0                       # Write request sizes (log2)
system.mem_ctrls2.writePktSize::5                   0                       # Write request sizes (log2)
system.mem_ctrls2.writePktSize::6               15335                       # Write request sizes (log2)
system.mem_ctrls2.rdQLenPdf::0                  75671                       # What read queue length does an incoming req see
system.mem_ctrls2.rdQLenPdf::1                  40512                       # What read queue length does an incoming req see
system.mem_ctrls2.rdQLenPdf::2                  21210                       # What read queue length does an incoming req see
system.mem_ctrls2.rdQLenPdf::3                  10799                       # What read queue length does an incoming req see
system.mem_ctrls2.rdQLenPdf::4                   4962                       # What read queue length does an incoming req see
system.mem_ctrls2.rdQLenPdf::5                   2123                       # What read queue length does an incoming req see
system.mem_ctrls2.rdQLenPdf::6                    787                       # What read queue length does an incoming req see
system.mem_ctrls2.rdQLenPdf::7                    251                       # What read queue length does an incoming req see
system.mem_ctrls2.rdQLenPdf::8                     78                       # What read queue length does an incoming req see
system.mem_ctrls2.rdQLenPdf::9                     20                       # What read queue length does an incoming req see
system.mem_ctrls2.rdQLenPdf::10                     2                       # What read queue length does an incoming req see
system.mem_ctrls2.rdQLenPdf::11                     0                       # What read queue length does an incoming req see
system.mem_ctrls2.rdQLenPdf::12                     0                       # What read queue length does an incoming req see
system.mem_ctrls2.rdQLenPdf::13                     0                       # What read queue length does an incoming req see
system.mem_ctrls2.rdQLenPdf::14                     0                       # What read queue length does an incoming req see
system.mem_ctrls2.rdQLenPdf::15                     0                       # What read queue length does an incoming req see
system.mem_ctrls2.rdQLenPdf::16                     0                       # What read queue length does an incoming req see
system.mem_ctrls2.rdQLenPdf::17                     0                       # What read queue length does an incoming req see
system.mem_ctrls2.rdQLenPdf::18                     0                       # What read queue length does an incoming req see
system.mem_ctrls2.rdQLenPdf::19                     0                       # What read queue length does an incoming req see
system.mem_ctrls2.rdQLenPdf::20                     0                       # What read queue length does an incoming req see
system.mem_ctrls2.rdQLenPdf::21                     0                       # What read queue length does an incoming req see
system.mem_ctrls2.rdQLenPdf::22                     0                       # What read queue length does an incoming req see
system.mem_ctrls2.rdQLenPdf::23                     0                       # What read queue length does an incoming req see
system.mem_ctrls2.rdQLenPdf::24                     0                       # What read queue length does an incoming req see
system.mem_ctrls2.rdQLenPdf::25                     0                       # What read queue length does an incoming req see
system.mem_ctrls2.rdQLenPdf::26                     0                       # What read queue length does an incoming req see
system.mem_ctrls2.rdQLenPdf::27                     0                       # What read queue length does an incoming req see
system.mem_ctrls2.rdQLenPdf::28                     0                       # What read queue length does an incoming req see
system.mem_ctrls2.rdQLenPdf::29                     0                       # What read queue length does an incoming req see
system.mem_ctrls2.rdQLenPdf::30                     0                       # What read queue length does an incoming req see
system.mem_ctrls2.rdQLenPdf::31                     0                       # What read queue length does an incoming req see
system.mem_ctrls2.wrQLenPdf::0                      1                       # What write queue length does an incoming req see
system.mem_ctrls2.wrQLenPdf::1                      1                       # What write queue length does an incoming req see
system.mem_ctrls2.wrQLenPdf::2                      1                       # What write queue length does an incoming req see
system.mem_ctrls2.wrQLenPdf::3                      1                       # What write queue length does an incoming req see
system.mem_ctrls2.wrQLenPdf::4                      1                       # What write queue length does an incoming req see
system.mem_ctrls2.wrQLenPdf::5                      1                       # What write queue length does an incoming req see
system.mem_ctrls2.wrQLenPdf::6                      1                       # What write queue length does an incoming req see
system.mem_ctrls2.wrQLenPdf::7                      1                       # What write queue length does an incoming req see
system.mem_ctrls2.wrQLenPdf::8                      1                       # What write queue length does an incoming req see
system.mem_ctrls2.wrQLenPdf::9                      1                       # What write queue length does an incoming req see
system.mem_ctrls2.wrQLenPdf::10                     1                       # What write queue length does an incoming req see
system.mem_ctrls2.wrQLenPdf::11                     1                       # What write queue length does an incoming req see
system.mem_ctrls2.wrQLenPdf::12                     1                       # What write queue length does an incoming req see
system.mem_ctrls2.wrQLenPdf::13                     1                       # What write queue length does an incoming req see
system.mem_ctrls2.wrQLenPdf::14                     1                       # What write queue length does an incoming req see
system.mem_ctrls2.wrQLenPdf::15                   248                       # What write queue length does an incoming req see
system.mem_ctrls2.wrQLenPdf::16                   294                       # What write queue length does an incoming req see
system.mem_ctrls2.wrQLenPdf::17                   646                       # What write queue length does an incoming req see
system.mem_ctrls2.wrQLenPdf::18                   879                       # What write queue length does an incoming req see
system.mem_ctrls2.wrQLenPdf::19                   935                       # What write queue length does an incoming req see
system.mem_ctrls2.wrQLenPdf::20                   944                       # What write queue length does an incoming req see
system.mem_ctrls2.wrQLenPdf::21                   944                       # What write queue length does an incoming req see
system.mem_ctrls2.wrQLenPdf::22                   959                       # What write queue length does an incoming req see
system.mem_ctrls2.wrQLenPdf::23                   951                       # What write queue length does an incoming req see
[...]
system.ruby.L2Cache_Controller.M.L1_GET_INSTR |          14     25.00%     25.00% |           0      0.00%     25.00% |           0      0.00%     25.00% |           0      0.00%     25.00% |           0      0.00%     25.00% |           0      0.00%     25.00% |           0      0.00%     25.00% |           0      0.00%     25.00% |          14     25.00%     50.00% |          14     25.00%     75.00% |           0      0.00%     75.00% |           0      0.00%     75.00% |           0      0.00%     75.00% |           0      0.00%     75.00% |          14     25.00%    100.00% |           0      0.00%    100.00%
system.ruby.L2Cache_Controller.M.L1_GET_INSTR::total           56                      
system.ruby.L2Cache_Controller.M.L1_GETS |       10325      6.17%      6.17% |       10619      6.35%     12.52% |       10398      6.22%     18.74% |       10527      6.29%     25.03% |       10224      6.11%     31.14% |       10062      6.01%     37.16% |       10148      6.07%     43.22% |       10332      6.18%     49.40% |       10360      6.19%     55.59% |       10153      6.07%     61.66% |       10458      6.25%     67.91% |       11238      6.72%     74.63% |       10858      6.49%     81.12% |       10960      6.55%     87.67% |       10790      6.45%     94.12% |        9833      5.88%    100.00%
system.ruby.L2Cache_Controller.M.L1_GETS::total       167285                      
system.ruby.L2Cache_Controller.M.L1_GETX |        1259      6.26%      6.26% |        1330      6.61%     12.87% |        1395      6.93%     19.81% |        1392      6.92%     26.72% |        1256      6.24%     32.97% |        1194      5.94%     38.90% |        1167      5.80%     44.71% |        1332      6.62%     51.33% |        1233      6.13%     57.46% |        1262      6.27%     63.73% |        1247      6.20%     69.93% |        1191      5.92%     75.85% |        1193      5.93%     81.78% |        1143      5.68%     87.46% |        1246      6.19%     93.66% |        1276      6.34%    100.00%
system.ruby.L2Cache_Controller.M.L1_GETX::total        20116                      
system.ruby.L2Cache_Controller.M.L2_Replacement |        3870      6.35%      6.35% |        3824      6.28%     12.63% |        3773      6.19%     18.82% |        3844      6.31%     25.13% |        3724      6.11%     31.25% |        3781      6.21%     37.45% |        3806      6.25%     43.70% |        3804      6.24%     49.94% |        3855      6.33%     56.27% |        3698      6.07%     62.34% |        3757      6.17%     68.51% |        3772      6.19%     74.70% |        3804      6.24%     80.95% |        3861      6.34%     87.28% |        3914      6.42%     93.71% |        3833      6.29%    100.00%
system.ruby.L2Cache_Controller.M.L2_Replacement::total        60920                      
system.ruby.L2Cache_Controller.M.L2_Replacement_clean |        2925      6.28%      6.28% |        2830      6.07%     12.35% |        2776      5.96%     18.31% |        2924      6.27%     24.58% |        2853      6.12%     30.70% |        2892      6.21%     36.91% |        2904      6.23%     43.14% |        2952      6.33%     49.47% |        2981      6.40%     55.87% |        2894      6.21%     62.08% |        2944      6.32%     68.40% |        2932      6.29%     74.69% |        3003      6.44%     81.13% |        2963      6.36%     87.49% |        2904      6.23%     93.72% |        2926      6.28%    100.00%
system.ruby.L2Cache_Controller.M.L2_Replacement_clean::total        46603                      
system.ruby.L2Cache_Controller.MT.L1_GETS |          70      3.97%      3.97% |          70      3.97%      7.94% |          98      5.56%     13.49% |          98      5.56%     19.05% |          98      5.56%     24.60% |         140      7.94%     32.54% |         140      7.94%     40.48% |         140      7.94%     48.41% |         138      7.82%     56.24% |         138      7.82%     64.06% |         134      7.60%     71.66% |         136      7.71%     79.37% |         112      6.35%     85.71% |         112      6.35%     92.06% |          70      3.97%     96.03% |          70      3.97%    100.00%
system.ruby.L2Cache_Controller.MT.L1_GETS::total         1764                      
system.ruby.L2Cache_Controller.MT.L1_GETX |           0      0.00%      0.00% |           0      0.00%      0.00% |           0      0.00%      0.00% |           0      0.00%      0.00% |           0      0.00%      0.00% |           0      0.00%      0.00% |           0      0.00%      0.00% |           0      0.00%      0.00% |           1     14.29%     14.29% |           1     14.29%     28.57% |           3     42.86%     71.43% |           2     28.57%    100.00% |           0      0.00%    100.00% |           0      0.00%    100.00% |           0      0.00%    100.00% |           0      0.00%    100.00%
system.ruby.L2Cache_Controller.MT.L1_GETX::total            7                      
system.ruby.L2Cache_Controller.MT.L1_PUTX |       48499      6.24%      6.24% |       48684      6.27%     12.51% |       48302      6.22%     18.72% |       48819      6.28%     25.01% |       48093      6.19%     31.20% |       48050      6.18%     37.38% |       48207      6.20%     43.59% |       48556      6.25%     49.84% |       48602      6.26%     56.09% |       48137      6.20%     62.29% |       48548      6.25%     68.54% |       49309      6.35%     74.88% |       49102      6.32%     81.20% |       49140      6.32%     87.53% |       48924      6.30%     93.82% |       47996      6.18%    100.00%
system.ruby.L2Cache_Controller.MT.L1_PUTX::total       776968                      
system.ruby.L2Cache_Controller.MT.L2_Replacement |           2      2.74%      2.74% |           4      5.48%      8.22% |           3      4.11%     12.33% |          10     13.70%     26.03% |           6      8.22%     34.25% |           4      5.48%     39.73% |           5      6.85%     46.58% |           4      5.48%     52.05% |           9     12.33%     64.38% |           2      2.74%     67.12% |           4      5.48%     72.60% |           6      8.22%     80.82% |           4      5.48%     86.30% |           1      1.37%     87.67% |           6      8.22%     95.89% |           3      4.11%    100.00%
system.ruby.L2Cache_Controller.MT.L2_Replacement::total           73                      
system.ruby.L2Cache_Controller.MT.L2_Replacement_clean |          21      8.33%      8.33% |          12      4.76%     13.10% |          14      5.56%     18.65% |          18      7.14%     25.79% |          15      5.95%     31.75% |          19      7.54%     39.29% |          13      5.16%     44.44% |          13      5.16%     49.60% |          12      4.76%     54.37% |          19      7.54%     61.90% |          17      6.75%     68.65% |           9      3.57%     72.22% |          15      5.95%     78.17% |          20      7.94%     86.11% |          19      7.54%     93.65% |          16      6.35%    100.00%
system.ruby.L2Cache_Controller.MT.L2_Replacement_clean::total          252                      
system.ruby.L2Cache_Controller.M_I.L1_GET_INSTR |           0      0.00%      0.00% |           0      0.00%      0.00% |           1     50.00%     50.00% |           0      0.00%     50.00% |           1     50.00%    100.00% |           0      0.00%    100.00% |           0      0.00%    100.00% |           0      0.00%    100.00% |           0      0.00%    100.00% |           0      0.00%    100.00% |           0      0.00%    100.00% |           0      0.00%    100.00% |           0      0.00%    100.00% |           0      0.00%    100.00% |           0      0.00%    100.00% |           0      0.00%    100.00%
system.ruby.L2Cache_Controller.M_I.L1_GET_INSTR::total            2                      
system.ruby.L2Cache_Controller.M_I.Mem_Ack |        7391      6.30%      6.30% |        7295      6.22%     12.53% |        7173      6.12%     18.65% |        7352      6.27%     24.92% |        7163      6.11%     31.03% |        7324      6.25%     37.28% |        7346      6.27%     43.54% |        7337      6.26%     49.80% |        7495      6.39%     56.20% |        7103      6.06%     62.25% |        7253      6.19%     68.44% |        7291      6.22%     74.66% |        7396      6.31%     80.97% |        7440      6.35%     87.32% |        7515      6.41%     93.73% |        7353      6.27%    100.00%
system.ruby.L2Cache_Controller.M_I.Mem_Ack::total       117227                      
system.ruby.L2Cache_Controller.MT_I.WB_Data |           2      6.06%      6.06% |           3      9.09%     15.15% |           2      6.06%     21.21% |           4     12.12%     33.33% |           3      9.09%     42.42% |           2      6.06%     48.48% |           2      6.06%     54.55% |           0      0.00%     54.55% |           3      9.09%     63.64% |           1      3.03%     66.67% |           1      3.03%     69.70% |           2      6.06%     75.76% |           3      9.09%     84.85% |           0      0.00%     84.85% |           2      6.06%     90.91% |           3      9.09%    100.00%
system.ruby.L2Cache_Controller.MT_I.WB_Data::total           33                      
system.ruby.L2Cache_Controller.MT_I.Ack_all |           0      0.00%      0.00% |           1      2.50%      2.50% |           1      2.50%      5.00% |           6     15.00%     20.00% |           3      7.50%     27.50% |           2      5.00%     32.50% |           3      7.50%     40.00% |           4     10.00%     50.00% |           6     15.00%     65.00% |           1      2.50%     67.50% |           3      7.50%     75.00% |           4     10.00%     85.00% |           1      2.50%     87.50% |           1      2.50%     90.00% |           4     10.00%    100.00% |           0      0.00%    100.00%
system.ruby.L2Cache_Controller.MT_I.Ack_all::total           40                      
system.ruby.L2Cache_Controller.MCT_I.WB_Data |          21      9.05%      9.05% |          11      4.74%     13.79% |          14      6.03%     19.83% |          16      6.90%     26.72% |          13      5.60%     32.33% |          19      8.19%     40.52% |          12      5.17%     45.69% |          11      4.74%     50.43% |          10      4.31%     54.74% |          18      7.76%     62.50% |          16      6.90%     69.40% |           9      3.88%     73.28% |          12      5.17%     78.45% |          19      8.19%     86.64% |          17      7.33%     93.97% |          14      6.03%    100.00%
system.ruby.L2Cache_Controller.MCT_I.WB_Data::total          232                      
system.ruby.L2Cache_Controller.MCT_I.Ack_all |           0      0.00%      0.00% |           1      5.00%      5.00% |           0      0.00%      5.00% |           2     10.00%     15.00% |           2     10.00%     25.00% |           0      0.00%     25.00% |           1      5.00%     30.00% |           2     10.00%     40.00% |           2     10.00%     50.00% |           1      5.00%     55.00% |           1      5.00%     60.00% |           0      0.00%     60.00% |           3     15.00%     75.00% |           1      5.00%     80.00% |           2     10.00%     90.00% |           2     10.00%    100.00%
system.ruby.L2Cache_Controller.MCT_I.Ack_all::total           20                      
system.ruby.L2Cache_Controller.I_I.Ack_all |         572      6.11%      6.11% |         623      6.66%     12.77% |         606      6.48%     19.25% |         555      5.93%     25.18% |         564      6.03%     31.21% |         627      6.70%     37.91% |         615      6.57%     44.48% |         563      6.02%     50.50% |         638      6.82%     57.32% |         490      5.24%     62.56% |         528      5.64%     68.20% |         572      6.11%     74.32% |         566      6.05%     80.37% |         592      6.33%     86.69% |         671      7.17%     93.86% |         574      6.14%    100.00%
system.ruby.L2Cache_Controller.I_I.Ack_all::total         9356                      
system.ruby.L2Cache_Controller.S_I.Ack   |           1      4.35%      4.35% |           2      8.70%     13.04% |           1      4.35%     17.39% |           1      4.35%     21.74% |           1      4.35%     26.09% |           1      4.35%     30.43% |           3     13.04%     43.48% |           1      4.35%     47.83% |           0      0.00%     47.83% |           0      0.00%     47.83% |           3     13.04%     60.87% |           0      0.00%     60.87% |           4     17.39%     78.26% |           3     13.04%     91.30% |           1      4.35%     95.65% |           1      4.35%    100.00%
system.ruby.L2Cache_Controller.S_I.Ack::total           23                      
system.ruby.L2Cache_Controller.S_I.Ack_all |           1      4.35%      4.35% |           2      8.70%     13.04% |           1      4.35%     17.39% |           1      4.35%     21.74% |           1      4.35%     26.09% |           1      4.35%     30.43% |           3     13.04%     43.48% |           1      4.35%     47.83% |           0      0.00%     47.83% |           0      0.00%     47.83% |           3     13.04%     60.87% |           0      0.00%     60.87% |           4     17.39%     78.26% |           3     13.04%     91.30% |           1      4.35%     95.65% |           1      4.35%    100.00%
system.ruby.L2Cache_Controller.S_I.Ack_all::total           23                      
system.ruby.L2Cache_Controller.ISS.Mem_Data |       29002      6.27%      6.27% |       28738      6.21%     12.48% |       28473      6.16%     18.64% |       28928      6.25%     24.90% |       28639      6.19%     31.09% |       28840      6.24%     37.32% |       28938      6.26%     43.58% |       28933      6.26%     49.84% |       29088      6.29%     56.12% |       28842      6.24%     62.36% |       28937      6.26%     68.62% |       28991      6.27%     74.89% |       29158      6.30%     81.19% |       29108      6.29%     87.48% |       28945      6.26%     93.74% |       28944      6.26%    100.00%
system.ruby.L2Cache_Controller.ISS.Mem_Data::total       462504                      
system.ruby.L2Cache_Controller.IS.Mem_Data |        1364      6.43%      6.43% |        1368      6.45%     12.88% |        1493      7.04%     19.92% |        1290      6.08%     26.01% |        1347      6.35%     32.36% |        1332      6.28%     38.64% |        1288      6.07%     44.71% |        1295      6.11%     50.82% |        1364      6.43%     57.25% |        1161      5.47%     62.72% |        1246      5.88%     68.60% |        1271      5.99%     74.59% |        1234      5.82%     80.41% |        1298      6.12%     86.53% |        1517      7.15%     93.69% |        1339      6.31%    100.00%
system.ruby.L2Cache_Controller.IS.Mem_Data::total        21207                      
system.ruby.L2Cache_Controller.IM.Mem_Data |        8837      6.22%      6.22% |        8921      6.28%     12.50% |        8958      6.31%     18.80% |        8910      6.27%     25.08% |        8909      6.27%     31.35% |        8906      6.27%     37.62% |        8906      6.27%     43.88% |        8908      6.27%     50.15% |        8862      6.24%     56.39% |        8829      6.21%     62.61% |        8857      6.23%     68.84% |        8841      6.22%     75.06% |        8830      6.22%     81.28% |        8865      6.24%     87.52% |        8867      6.24%     93.76% |        8864      6.24%    100.00%
system.ruby.L2Cache_Controller.IM.Mem_Data::total       142070                      
system.ruby.L2Cache_Controller.SS_MB.Exclusive_Unblock |          42      3.92%      3.92% |          42      3.92%      7.84% |          70      6.54%     14.38% |          56      5.23%     19.61% |          56      5.23%     24.84% |          84      7.84%     32.68% |          84      7.84%     40.52% |          84      7.84%     48.37% |          83      7.75%     56.12% |          83      7.75%     63.87% |          81      7.56%     71.43% |          82      7.66%     79.08% |          70      6.54%     85.62% |          70      6.54%     92.16% |          42      3.92%     96.08% |          42      3.92%    100.00%
system.ruby.L2Cache_Controller.SS_MB.Exclusive_Unblock::total         1071                      
system.ruby.L2Cache_Controller.MT_MB.Exclusive_Unblock |       49423      6.24%      6.24% |       49608      6.26%     12.50% |       49224      6.22%     18.72% |       49757      6.28%     25.00% |       49028      6.19%     31.19% |       49002      6.19%     37.38% |       49159      6.21%     43.59% |       49505      6.25%     49.84% |       49544      6.26%     56.09% |       49087      6.20%     62.29% |       49502      6.25%     68.54% |       50263      6.35%     74.89% |       50039      6.32%     81.21% |       50076      6.32%     87.53% |       49848      6.29%     93.82% |       48917      6.18%    100.00%
system.ruby.L2Cache_Controller.MT_MB.Exclusive_Unblock::total       791982                      
system.ruby.L2Cache_Controller.MT_IIB.WB_Data |          70      4.00%      4.00% |          70      4.00%      8.00% |          96      5.48%     13.48% |          96      5.48%     18.96% |          98      5.60%     24.56% |         138      7.88%     32.44% |         138      7.88%     40.32% |         139      7.94%     48.26% |         138      7.88%     56.14% |         137      7.82%     63.96% |         134      7.65%     71.62% |         135      7.71%     79.33% |         110      6.28%     85.61% |         112      6.40%     92.00% |          70      4.00%     96.00% |          70      4.00%    100.00%
system.ruby.L2Cache_Controller.MT_IIB.WB_Data::total         1751                      
system.ruby.L2Cache_Controller.MT_IIB.Unblock |           0      0.00%      0.00% |           0      0.00%      0.00% |           2     15.38%     15.38% |           2     15.38%     30.77% |           0      0.00%     30.77% |           2     15.38%     46.15% |           2     15.38%     61.54% |           1      7.69%     69.23% |           0      0.00%     69.23% |           1      7.69%     76.92% |           0      0.00%     76.92% |           1      7.69%     84.62% |           2     15.38%    100.00% |           0      0.00%    100.00% |           0      0.00%    100.00% |           0      0.00%    100.00%
system.ruby.L2Cache_Controller.MT_IIB.Unblock::total           13                      
system.ruby.L2Cache_Controller.MT_IB.WB_Data |           0      0.00%      0.00% |           0      0.00%      0.00% |           2     15.38%     15.38% |           2     15.38%     30.77% |           0      0.00%     30.77% |           2     15.38%     46.15% |           2     15.38%     61.54% |           1      7.69%     69.23% |           0      0.00%     69.23% |           1      7.69%     76.92% |           0      0.00%     76.92% |           1      7.69%     84.62% |           2     15.38%    100.00% |           0      0.00%    100.00% |           0      0.00%    100.00% |           0      0.00%    100.00%
system.ruby.L2Cache_Controller.MT_IB.WB_Data::total           13                      
system.ruby.L2Cache_Controller.MT_SB.Unblock |          70      4.00%      4.00% |          70      4.00%      8.00% |          96      5.48%     13.48% |          96      5.48%     18.96% |          98      5.60%     24.56% |         138      7.88%     32.44% |         138      7.88%     40.32% |         139      7.94%     48.26% |         138      7.88%     56.14% |         137      7.82%     63.96% |         134      7.65%     71.62% |         135      7.71%     79.33% |         110      6.28%     85.61% |         112      6.40%     92.00% |          70      4.00%     96.00% |          70      4.00%    100.00%
system.ruby.L2Cache_Controller.MT_SB.Unblock::total         1751                      

---------- End Simulation Statistics   ----------
