
---------- Begin Simulation Statistics ----------
sim_seconds                                  0.015983                       # Number of seconds simulated
sim_ticks                                 15983049500                       # Number of ticks simulated
final_tick                                15983049500                       # Number of ticks from beginning of simulation (restored from checkpoints and never reset)
sim_freq                                 1000000000000                       # Frequency of simulated ticks
host_inst_rate                                  56455                       # Simulator instruction rate (inst/s)
host_op_rate                                    97968                       # Simulator op (including micro ops) rate (op/s)
host_tick_rate                               19654403                       # Simulator tick rate (ticks/s)
host_mem_usage                                2040136                       # Number of bytes of host memory used
host_seconds                                   813.20                       # Real time elapsed on the host
sim_insts                                    45909104                       # Number of instructions simulated
sim_ops                                      79668132                       # Number of ops (including micro ops) simulated
system.voltage_domain.voltage                       1                       # Voltage in Volts
system.clk_domain.clock                          1000                       # Clock period in ticks
system.mem_ctrls0.pwrStateResidencyTicks::UNDEFINED  15983049500                       # Cumulative time (in ticks) in various power states
system.mem_ctrls0.bytes_read::ruby.dir_cntrl0     10290816                       # Number of bytes read from this memory
system.mem_ctrls0.bytes_read::total          10290816                       # Number of bytes read from this memory
system.mem_ctrls0.bytes_written::ruby.dir_cntrl0      1228800                       # Number of bytes written to this memory
system.mem_ctrls0.bytes_written::total        1228800                       # Number of bytes written to this memory
system.mem_ctrls0.num_reads::ruby.dir_cntrl0       160794                       # Number of read requests responded to by this memory
system.mem_ctrls0.num_reads::total             160794                       # Number of read requests responded to by this memory
system.mem_ctrls0.num_writes::ruby.dir_cntrl0        19200                       # Number of write requests responded to by this memory
system.mem_ctrls0.num_writes::total             19200                       # Number of write requests responded to by this memory
system.mem_ctrls0.bw_read::ruby.dir_cntrl0    643858107                       # Total read bandwidth from this memory (bytes/s)
system.mem_ctrls0.bw_read::total            643858107                       # Total read bandwidth from this memory (bytes/s)
system.mem_ctrls0.bw_write::ruby.dir_cntrl0     76881449                       # Write bandwidth from this memory (bytes/s)
system.mem_ctrls0.bw_write::total            76881449                       # Write bandwidth from this memory (bytes/s)
system.mem_ctrls0.bw_total::ruby.dir_cntrl0    720739556                       # Total bandwidth to/from this memory (bytes/s)
system.mem_ctrls0.bw_total::total           720739556                       # Total bandwidth to/from this memory (bytes/s)
system.mem_ctrls0.readReqs                     160794                       # Number of read requests accepted
system.mem_ctrls0.avgNetLat                      0.00                       # Average network latency to DRAM controller
system.mem_ctrls0.writeReqs                     19200                       # Number of write requests accepted
system.mem_ctrls0.readBursts                   160794                       # Number of DRAM read bursts, including those serviced by the write queue
system.mem_ctrls0.writeBursts                   19200                       # Number of DRAM write bursts, including those merged in the write queue
system.mem_ctrls0.bytesReadDRAM              10290112                       # Total number of bytes read from DRAM
system.mem_ctrls0.bytesReadWrQ                    704                       # Total number of bytes read from write queue
system.mem_ctrls0.bytesWritten                1226944                       # Total number of bytes written to DRAM
system.mem_ctrls0.bytesReadSys               10290816                       # Total read bytes from the system interface side
system.mem_ctrls0.bytesWrittenSys             1228800                       # Total written bytes from the system interface side
system.mem_ctrls0.servicedByWrQ                    11                       # Number of DRAM read bursts serviced by the write queue
system.mem_ctrls0.mergedWrBursts                    0                       # Number of DRAM write bursts merged with an existing one
system.mem_ctrls0.neitherReadNorWriteReqs            0                       # Number of requests that are neither read nor write
system.mem_ctrls0.perBankRdBursts::0            10398                       # Per bank write bursts
system.mem_ctrls0.perBankRdBursts::1            10279                       # Per bank write bursts
system.mem_ctrls0.perBankRdBursts::2            10005                       # Per bank write bursts
system.mem_ctrls0.perBankRdBursts::3            10051                       # Per bank write bursts
system.mem_ctrls0.perBankRdBursts::4             9594                       # Per bank write bursts
system.mem_ctrls0.perBankRdBursts::5             9312                       # Per bank write bursts
system.mem_ctrls0.perBankRdBursts::6             9267                       # Per bank write bursts
system.mem_ctrls0.perBankRdBursts::7             9239                       # Per bank write bursts
system.mem_ctrls0.perBankRdBursts::8             9190                       # Per bank write bursts
system.mem_ctrls0.perBankRdBursts::9             9380                       # Per bank write bursts
system.mem_ctrls0.perBankRdBursts::10           10348                       # Per bank write bursts
system.mem_ctrls0.perBankRdBursts::11           10383                       # Per bank write bursts
system.mem_ctrls0.perBankRdBursts::12           11070                       # Per bank write bursts
system.mem_ctrls0.perBankRdBursts::13           11176                       # Per bank write bursts
system.mem_ctrls0.perBankRdBursts::14           10712                       # Per bank write bursts
system.mem_ctrls0.perBankRdBursts::15           10379                       # Per bank write bursts
system.mem_ctrls0.perBankWrBursts::0             1438                       # Per bank write bursts
system.mem_ctrls0.perBankWrBursts::1             1251                       # Per bank write bursts
system.mem_ctrls0.perBankWrBursts::2             1203                       # Per bank write bursts
system.mem_ctrls0.perBankWrBursts::3             1250                       # Per bank write bursts
system.mem_ctrls0.perBankWrBursts::4             1072                       # Per bank write bursts
system.mem_ctrls0.perBankWrBursts::5             1004                       # Per bank write bursts
system.mem_ctrls0.perBankWrBursts::6              944                       # Per bank write bursts
system.mem_ctrls0.perBankWrBursts::7              895                       # Per bank write bursts
system.mem_ctrls0.perBankWrBursts::8              919                       # Per bank write bursts
system.mem_ctrls0.perBankWrBursts::9              979                       # Per bank write bursts
system.mem_ctrls0.perBankWrBursts::10            1228                       # Per bank write bursts
system.mem_ctrls0.perBankWrBursts::11            1317                       # Per bank write bursts
system.mem_ctrls0.perBankWrBursts::12            1446                       # Per bank write bursts
system.mem_ctrls0.perBankWrBursts::13            1488                       # Per bank write bursts
system.mem_ctrls0.perBankWrBursts::14            1401                       # Per bank write bursts
system.mem_ctrls0.perBankWrBursts::15            1336                       # Per bank write bursts
system.mem_ctrls0.numRdRetry                        0                       # Number of times read queue was full causing retry
system.mem_ctrls0.numWrRetry                        0                       # Number of times write queue was full causing retry
system.mem_ctrls0.totGap                  15981764000                       # Total gap between requests
system.mem_ctrls0.readPktSize::0                    0                       # Read request sizes (log2)
system.mem_ctrls0.readPktSize::1                    0                       # Read request sizes (log2)
system.mem_ctrls0.readPktSize::2                    0                       # Read request sizes (log2)
system.mem_ctrls0.readPktSize::3                    0                       # Read request sizes (log2)
system.mem_ctrls0.readPktSize::4                    0                       # Read request sizes (log2)
system.mem_ctrls0.readPktSize::5                    0                       # Read request sizes (log2)
system.mem_ctrls0.readPktSize::6               160794                       # Read request sizes (log2)
system.mem_ctrls0.writePktSize::0                   0                       # Write request sizes (log2)
system.mem_ctrls0.writePktSize::1                   0                       # Write request sizes (log2)
system.mem_ctrls0.writePktSize::2                   0                       # Write request sizes (log2)
system.mem_ctrls0.writePktSize::3                   0                       # Write request sizes (log2)
system.mem_ctrls0.writePktSize::4                   0                       # Write request sizes (log2)
system.mem_ctrls0.writePktSize::5                   0                       # Write request sizes (log2)
system.mem_ctrls0.writePktSize::6               19200                       # Write request sizes (log2)
system.mem_ctrls0.rdQLenPdf::0                  79031                       # What read queue length does an incoming req see
system.mem_ctrls0.rdQLenPdf::1                  42909                       # What read queue length does an incoming req see
system.mem_ctrls0.rdQLenPdf::2                  22144                       # What read queue length does an incoming req see
system.mem_ctrls0.rdQLenPdf::3                  10230                       # What read queue length does an incoming req see
system.mem_ctrls0.rdQLenPdf::4                   4236                       # What read queue length does an incoming req see
system.mem_ctrls0.rdQLenPdf::5                   1560                       # What read queue length does an incoming req see
system.mem_ctrls0.rdQLenPdf::6                    519                       # What read queue length does an incoming req see
system.mem_ctrls0.rdQLenPdf::7                    129                       # What read queue length does an incoming req see
system.mem_ctrls0.rdQLenPdf::8                     22                       # What read queue length does an incoming req see
system.mem_ctrls0.rdQLenPdf::9                      3                       # What read queue length does an incoming req see
system.mem_ctrls0.rdQLenPdf::10                     0                       # What read queue length does an incoming req see
system.mem_ctrls0.rdQLenPdf::11                     0                       # What read queue length does an incoming req see
system.mem_ctrls0.rdQLenPdf::12                     0                       # What read queue length does an incoming req see
system.mem_ctrls0.rdQLenPdf::13                     0                       # What read queue length does an incoming req see
system.mem_ctrls0.rdQLenPdf::14                     0                       # What read queue length does an incoming req see
system.mem_ctrls0.rdQLenPdf::15                     0                       # What read queue length does an incoming req see
system.mem_ctrls0.rdQLenPdf::16                     0                       # What read queue length does an incoming req see
system.mem_ctrls0.rdQLenPdf::17                     0                       # What read queue length does an incoming req see
system.mem_ctrls0.rdQLenPdf::18                     0                       # What read queue length does an incoming req see
system.mem_ctrls0.rdQLenPdf::19                     0                       # What read queue length does an incoming req see
system.mem_ctrls0.rdQLenPdf::20                     0                       # What read queue length does an incoming req see
system.mem_ctrls0.rdQLenPdf::21                     0                       # What read queue length does an incoming req see
system.mem_ctrls0.rdQLenPdf::22                     0                       # What read queue length does an incoming req see
system.mem_ctrls0.rdQLenPdf::23                     0                       # What read queue length does an incoming req see
system.mem_ctrls0.rdQLenPdf::24                     0                       # What read queue length does an incoming req see
system.mem_ctrls0.rdQLenPdf::25                     0                       # What read queue length does an incoming req see
system.mem_ctrls0.rdQLenPdf::26                     0                       # What read queue length does an incoming req see
system.mem_ctrls0.rdQLenPdf::27                     0                       # What read queue length does an incoming req see
system.mem_ctrls0.rdQLenPdf::28                     0                       # What read queue length does an incoming req see
system.mem_ctrls0.rdQLenPdf::29                     0                       # What read queue length does an incoming req see
system.mem_ctrls0.rdQLenPdf::30                     0                       # What read queue length does an incoming req see
system.mem_ctrls0.rdQLenPdf::31                     0                       # What read queue length does an incoming req see
system.mem_ctrls0.wrQLenPdf::0                      1                       # What write queue length does an incoming req see
system.mem_ctrls0.wrQLenPdf::1                      1                       # What write queue length does an incoming req see
system.mem_ctrls0.wrQLenPdf::2                      1                       # What write queue length does an incoming req see
system.mem_ctrls0.wrQLenPdf::3                      1                       # What write queue length does an incoming req see
system.mem_ctrls0.wrQLenPdf::4                      1                       # What write queue length does an incoming req see
system.mem_ctrls0.wrQLenPdf::5                      1                       # What write queue length does an incoming req see
system.mem_ctrls0.wrQLenPdf::6                      1                       # What write queue length does an incoming req see
system.mem_ctrls0.wrQLenPdf::7                      1                       # What write queue length does an incoming req see
system.mem_ctrls0.wrQLenPdf::8                      1                       # What write queue length does an incoming req see
system.mem_ctrls0.wrQLenPdf::9                      1                       # What write queue length does an incoming req see
system.mem_ctrls0.wrQLenPdf::10                     1                       # What write queue length does an incoming req see
system.mem_ctrls0.wrQLenPdf::11                     1                       # What write queue length does an incoming req see
system.mem_ctrls0.wrQLenPdf::12                     1                       # What write queue length does an incoming req see
system.mem_ctrls0.wrQLenPdf::13                     1                       # What write queue length does an incoming req see
system.mem_ctrls0.wrQLenPdf::14                     1                       # What write queue length does an incoming req see
system.mem_ctrls0.wrQLenPdf::15                   297                       # What write queue length does an incoming req see
system.mem_ctrls0.wrQLenPdf::16                   357                       # What write queue length does an incoming req see
system.mem_ctrls0.wrQLenPdf::17                   807                       # What write queue length does an incoming req see
system.mem_ctrls0.wrQLenPdf::18                  1126                       # What write queue length does an incoming req see
system.mem_ctrls0.wrQLenPdf::19                  1190                       # What write queue length does an incoming req see
system.mem_ctrls0.wrQLenPdf::20                  1191                       # What write queue length does an incoming req see
system.mem_ctrls0.wrQLenPdf::21                  1199                       # What write queue length does an incoming req see
system.mem_ctrls0.wrQLenPdf::22                  1193                       # What write queue length does an incoming req see
system.mem_ctrls0.wrQLenPdf::23                  1184                       # What write queue length does an incoming req see
system.mem_ctrls0.wrQLenPdf::24                  1193                       # What write queue length does an incoming req see
system.mem_ctrls0.wrQLenPdf::25                  1190                       # What write queue length does an incoming req see
system.mem_ctrls0.wrQLenPdf::26                  1181                       # What write queue length does an incoming req see
system.mem_ctrls0.wrQLenPdf::27                  1180                       # What write queue length does an incoming req see
system.mem_ctrls0.wrQLenPdf::28                  1187                       # What write queue length does an incoming req see
system.mem_ctrls0.wrQLenPdf::29                  1177                       # What write queue length does an incoming req see
system.mem_ctrls0.wrQLenPdf::30                  1176                       # What write queue length does an incoming req see
system.mem_ctrls0.wrQLenPdf::31                  1170                       # What write queue length does an incoming req see
system.mem_ctrls0.wrQLenPdf::32                  1165                       # What write queue length does an incoming req see
system.mem_ctrls0.wrQLenPdf::33                    19                       # What write queue length does an incoming req see
system.mem_ctrls0.wrQLenPdf::34                     2                       # What write queue length does an incoming req see
system.mem_ctrls0.wrQLenPdf::35                     1                       # What write queue length does an incoming req see
system.mem_ctrls0.wrQLenPdf::36                     0                       # What write queue length does an incoming req see
system.mem_ctrls0.wrQLenPdf::37                     0                       # What write queue length does an incoming req see
system.mem_ctrls0.wrQLenPdf::38                     0                       # What write queue length does an incoming req see
system.mem_ctrls0.wrQLenPdf::39                     0                       # What write queue length does an incoming req see
system.mem_ctrls0.wrQLenPdf::40                     0                       # What write queue length does an incoming req see
system.mem_ctrls0.wrQLenPdf::41                     0                       # What write queue length does an incoming req see
system.mem_ctrls0.wrQLenPdf::42                     0                       # What write queue length does an incoming req see
system.mem_ctrls0.wrQLenPdf::43                     0                       # What write queue length does an incoming req see
system.mem_ctrls0.wrQLenPdf::44                     0                       # What write queue length does an incoming req see
system.mem_ctrls0.wrQLenPdf::45                     0                       # What write queue length does an incoming req see
system.mem_ctrls0.wrQLenPdf::46                     0                       # What write queue length does an incoming req see
system.mem_ctrls0.wrQLenPdf::47                     0                       # What write queue length does an incoming req see
system.mem_ctrls0.wrQLenPdf::48                     0                       # What write queue length does an incoming req see
system.mem_ctrls0.wrQLenPdf::49                     0                       # What write queue length does an incoming req see
system.mem_ctrls0.wrQLenPdf::50                     0                       # What write queue length does an incoming req see
system.mem_ctrls0.wrQLenPdf::51                     0                       # What write queue length does an incoming req see
system.mem_ctrls0.wrQLenPdf::52                     0                       # What write queue length does an incoming req see
system.mem_ctrls0.wrQLenPdf::53                     0                       # What write queue length does an incoming req see
system.mem_ctrls0.wrQLenPdf::54                     0                       # What write queue length does an incoming req see
system.mem_ctrls0.wrQLenPdf::55                     0                       # What write queue length does an incoming req see
system.mem_ctrls0.wrQLenPdf::56                     0                       # What write queue length does an incoming req see
system.mem_ctrls0.wrQLenPdf::57                     0                       # What write queue length does an incoming req see
system.mem_ctrls0.wrQLenPdf::58                     0                       # What write queue length does an incoming req see
system.mem_ctrls0.wrQLenPdf::59                     0                       # What write queue length does an incoming req see
system.mem_ctrls0.wrQLenPdf::60                     0                       # What write queue length does an incoming req see
system.mem_ctrls0.wrQLenPdf::61                     0                       # What write queue length does an incoming req see
system.mem_ctrls0.wrQLenPdf::62                     0                       # What write queue length does an incoming req see
system.mem_ctrls0.wrQLenPdf::63                     0                       # What write queue length does an incoming req see
system.mem_ctrls0.bytesPerActivate::samples       107153                       # Bytes accessed per row activation
system.mem_ctrls0.bytesPerActivate::mean   107.476375                       # Bytes accessed per row activation
system.mem_ctrls0.bytesPerActivate::gmean    85.345509                       # Bytes accessed per row activation
system.mem_ctrls0.bytesPerActivate::stdev   112.390409                       # Bytes accessed per row activation
system.mem_ctrls0.bytesPerActivate::0-127        78880     73.61%     73.61% # Bytes accessed per row activation
system.mem_ctrls0.bytesPerActivate::128-255        19339     18.05%     91.66% # Bytes accessed per row activation
system.mem_ctrls0.bytesPerActivate::256-383         3657      3.41%     95.08% # Bytes accessed per row activation
system.mem_ctrls0.bytesPerActivate::384-511         2284      2.13%     97.21% # Bytes accessed per row activation
system.mem_ctrls0.bytesPerActivate::512-639         1462      1.36%     98.57% # Bytes accessed per row activation
system.mem_ctrls0.bytesPerActivate::640-767         1102      1.03%     99.60% # Bytes accessed per row activation
system.mem_ctrls0.bytesPerActivate::768-895          191      0.18%     99.78% # Bytes accessed per row activation
system.mem_ctrls0.bytesPerActivate::896-1023          117      0.11%     99.89% # Bytes accessed per row activation
system.mem_ctrls0.bytesPerActivate::1024-1151          121      0.11%    100.00% # Bytes accessed per row activation
system.mem_ctrls0.bytesPerActivate::total       107153                       # Bytes accessed per row activation
system.mem_ctrls0.rdPerTurnAround::samples         1156                       # Reads before turning the bus around for writes
system.mem_ctrls0.rdPerTurnAround::mean    139.067474                       # Reads before turning the bus around for writes
system.mem_ctrls0.rdPerTurnAround::gmean    55.679322                       # Reads before turning the bus around for writes
system.mem_ctrls0.rdPerTurnAround::stdev  1794.341398                       # Reads before turning the bus around for writes
system.mem_ctrls0.rdPerTurnAround::0-2047         1153     99.74%     99.74% # Reads before turning the bus around for writes
system.mem_ctrls0.rdPerTurnAround::2048-4095            2      0.17%     99.91% # Reads before turning the bus around for writes
system.mem_ctrls0.rdPerTurnAround::59392-61439            1      0.09%    100.00% # Reads before turning the bus around for writes
system.mem_ctrls0.rdPerTurnAround::total         1156                       # Reads before turning the bus around for writes
system.mem_ctrls0.wrPerTurnAround::samples         1156                       # Writes before turning the bus around for reads
system.mem_ctrls0.wrPerTurnAround::mean     16.583910                       # Writes before turning the bus around for reads
system.mem_ctrls0.wrPerTurnAround::gmean    16.560127                       # Writes before turning the bus around for reads
system.mem_ctrls0.wrPerTurnAround::stdev     0.903510                       # Writes before turning the bus around for reads
system.mem_ctrls0.wrPerTurnAround::16             805     69.64%     69.64% # Writes before turning the bus around for reads
system.mem_ctrls0.wrPerTurnAround::17              34      2.94%     72.58% # Writes before turning the bus around for reads
system.mem_ctrls0.wrPerTurnAround::18             310     26.82%     99.39% # Writes before turning the bus around for reads
system.mem_ctrls0.wrPerTurnAround::19               7      0.61%    100.00% # Writes before turning the bus around for reads
system.mem_ctrls0.wrPerTurnAround::total         1156                       # Writes before turning the bus around for reads
system.mem_ctrls0.totQLat                  4884340750                       # Total ticks spent queuing
system.mem_ctrls0.totMemAccLat             7899022000                       # Total ticks spent from burst creation until serviced by the DRAM
system.mem_ctrls0.totBusLat                 803915000                       # Total ticks spent in databus transfers
system.mem_ctrls0.avgQLat                    30378.47                       # Average queueing delay per DRAM burst
system.mem_ctrls0.avgBusLat                   5000.00                       # Average bus latency per DRAM burst
system.mem_ctrls0.avgMemAccLat               49128.47                       # Average memory access latency per DRAM burst
system.mem_ctrls0.avgRdBW                      643.81                       # Average DRAM read bandwidth in MiByte/s
system.mem_ctrls0.avgWrBW                       76.77                       # Average achieved write bandwidth in MiByte/s
system.mem_ctrls0.avgRdBWSys                   643.86                       # Average system read bandwidth in MiByte/s
system.mem_ctrls0.avgWrBWSys                    76.88                       # Average system write bandwidth in MiByte/s
system.mem_ctrls0.peakBW                     12800.00                       # Theoretical peak bandwidth in MiByte/s
system.mem_ctrls0.busUtil                        5.63                       # Data bus utilization in percentage
system.mem_ctrls0.busUtilRead                    5.03                       # Data bus utilization in percentage for reads
system.mem_ctrls0.busUtilWrite                   0.60                       # Data bus utilization in percentage for writes
system.mem_ctrls0.avgRdQLen                      1.55                       # Average read queue length when enqueuing
system.mem_ctrls0.avgWrQLen                     13.55                       # Average write queue length when enqueuing
system.mem_ctrls0.readRowHits                   68896                       # Number of row buffer hits during reads
system.mem_ctrls0.writeRowHits                   3901                       # Number of row buffer hits during writes
system.mem_ctrls0.readRowHitRate                42.85                       # Row buffer hit rate for reads
system.mem_ctrls0.writeRowHitRate               20.32                       # Row buffer hit rate for writes
system.mem_ctrls0.avgGap                     88790.54                       # Average gap between requests
system.mem_ctrls0.pageHitRate                   40.45                       # Row buffer hit rate, read and write combined
system.mem_ctrls0_0.actEnergy               367367280                       # Energy for activate commands per rank (pJ)
system.mem_ctrls0_0.preEnergy               195245160                       # Energy for precharge commands per rank (pJ)
system.mem_ctrls0_0.readEnergy              557955300                       # Energy for read commands per rank (pJ)
system.mem_ctrls0_0.writeEnergy              47277540                       # Energy for write commands per rank (pJ)
system.mem_ctrls0_0.refreshEnergy        1264314480.000000                       # Energy for refresh commands per rank (pJ)
system.mem_ctrls0_0.actBackEnergy          1529394930                       # Energy for active background per rank (pJ)
system.mem_ctrls0_0.preBackEnergy            33781440                       # Energy for precharge background per rank (pJ)
system.mem_ctrls0_0.actPowerDownEnergy     5242669620                       # Energy for active power-down per rank (pJ)
system.mem_ctrls0_0.prePowerDownEnergy      309853920                       # Energy for precharge power-down per rank (pJ)
system.mem_ctrls0_0.selfRefreshEnergy        78046545                       # Energy for self refresh per rank (pJ)
system.mem_ctrls0_0.totalEnergy            9626370375                       # Total energy per rank (pJ)
system.mem_ctrls0_0.averagePower           602.286195                       # Core power per rank (mW)
system.mem_ctrls0_0.totalIdleTime         12539249250                       # Total Idle time Per DRAM Rank
system.mem_ctrls0_0.memoryStateTime::IDLE     20939500                       # Time in different power states
system.mem_ctrls0_0.memoryStateTime::REF    535126000                       # Time in different power states
system.mem_ctrls0_0.memoryStateTime::SREF    236115250                       # Time in different power states
system.mem_ctrls0_0.memoryStateTime::PRE_PDN    807032250                       # Time in different power states
system.mem_ctrls0_0.memoryStateTime::ACT   2886570500                       # Time in different power states
system.mem_ctrls0_0.memoryStateTime::ACT_PDN  11497266000                       # Time in different power states
system.mem_ctrls0_1.actEnergy               397733700                       # Energy for activate commands per rank (pJ)
system.mem_ctrls0_1.preEnergy               211400475                       # Energy for precharge commands per rank (pJ)
system.mem_ctrls0_1.readEnergy              590035320                       # Energy for read commands per rank (pJ)
system.mem_ctrls0_1.writeEnergy              52795080                       # Energy for write commands per rank (pJ)
system.mem_ctrls0_1.refreshEnergy        1239114240.000000                       # Energy for refresh commands per rank (pJ)
system.mem_ctrls0_1.actBackEnergy          1615868490                       # Energy for active background per rank (pJ)
system.mem_ctrls0_1.preBackEnergy            32404800                       # Energy for precharge background per rank (pJ)
system.mem_ctrls0_1.actPowerDownEnergy     5122281060                       # Energy for active power-down per rank (pJ)
system.mem_ctrls0_1.prePowerDownEnergy      244678080                       # Energy for precharge power-down per rank (pJ)
system.mem_ctrls0_1.selfRefreshEnergy       131911035                       # Energy for self refresh per rank (pJ)
system.mem_ctrls0_1.totalEnergy            9638474130                       # Total energy per rank (pJ)
system.mem_ctrls0_1.averagePower           603.043482                       # Core power per rank (mW)
system.mem_ctrls0_1.totalIdleTime         12350790000                       # Total Idle time Per DRAM Rank
system.mem_ctrls0_1.memoryStateTime::IDLE     18229250                       # Time in different power states
system.mem_ctrls0_1.memoryStateTime::REF    524382000                       # Time in different power states
system.mem_ctrls0_1.memoryStateTime::SREF    484279000                       # Time in different power states
system.mem_ctrls0_1.memoryStateTime::PRE_PDN    637002750                       # Time in different power states
system.mem_ctrls0_1.memoryStateTime::ACT   3085230500                       # Time in different power states
system.mem_ctrls0_1.memoryStateTime::ACT_PDN  11233926000                       # Time in different power states
system.mem_ctrls1.pwrStateResidencyTicks::UNDEFINED  15983049500                       # Cumulative time (in ticks) in various power states
system.mem_ctrls1.bytes_read::ruby.dir_cntrl1     10260352                       # Number of bytes read from this memory
system.mem_ctrls1.bytes_read::total          10260352                       # Number of bytes read from this memory
system.mem_ctrls1.bytes_written::ruby.dir_cntrl1      1219648                       # Number of bytes written to this memory
system.mem_ctrls1.bytes_written::total        1219648                       # Number of bytes written to this memory
system.mem_ctrls1.num_reads::ruby.dir_cntrl1       160318                       # Number of read requests responded to by this memory
system.mem_ctrls1.num_reads::total             160318                       # Number of read requests responded to by this memory
system.mem_ctrls1.num_writes::ruby.dir_cntrl1        19057                       # Number of write requests responded to by this memory
system.mem_ctrls1.num_writes::total             19057                       # Number of write requests responded to by this memory
system.mem_ctrls1.bw_read::ruby.dir_cntrl1    641952088                       # Total read bandwidth from this memory (bytes/s)
system.mem_ctrls1.bw_read::total            641952088                       # Total read bandwidth from this memory (bytes/s)
system.mem_ctrls1.bw_write::ruby.dir_cntrl1     76308842                       # Write bandwidth from this memory (bytes/s)
system.mem_ctrls1.bw_write::total            76308842                       # Write bandwidth from this memory (bytes/s)
system.mem_ctrls1.bw_total::ruby.dir_cntrl1    718260930                       # Total bandwidth to/from this memory (bytes/s)
system.mem_ctrls1.bw_total::total           718260930                       # Total bandwidth to/from this memory (bytes/s)
system.mem_ctrls1.readReqs                     160318                       # Number of read requests accepted
system.mem_ctrls1.avgNetLat                      0.00                       # Average network latency to DRAM controller
system.mem_ctrls1.writeReqs                     19057                       # Number of write requests accepted
system.mem_ctrls1.readBursts                   160318                       # Number of DRAM read bursts, including those serviced by the write queue
system.mem_ctrls1.writeBursts                   19057                       # Number of DRAM write bursts, including those merged in the write queue
system.mem_ctrls1.bytesReadDRAM              10259904                       # Total number of bytes read from DRAM
system.mem_ctrls1.bytesReadWrQ                    448                       # Total number of bytes read from write queue
system.mem_ctrls1.bytesWritten                1217792                       # Total number of bytes written to DRAM
system.mem_ctrls1.bytesReadSys               10260352                       # Total read bytes from the system interface side
system.mem_ctrls1.bytesWrittenSys             1219648                       # Total written bytes from the system interface side
system.mem_ctrls1.servicedByWrQ                     7                       # Number of DRAM read bursts serviced by the write queue
system.mem_ctrls1.mergedWrBursts                    0                       # Number of DRAM write bursts merged with an existing one
system.mem_ctrls1.neitherReadNorWriteReqs            0                       # Number of requests that are neither read nor write
system.mem_ctrls1.perBankRdBursts::0            10268                       # Per bank write bursts
system.mem_ctrls1.perBankRdBursts::1            10164                       # Per bank write bursts
system.mem_ctrls1.perBankRdBursts::2             9949                       # Per bank write bursts
system.mem_ctrls1.perBankRdBursts::3            10001                       # Per bank write bursts
system.mem_ctrls1.perBankRdBursts::4             9619                       # Per bank write bursts
system.mem_ctrls1.perBankRdBursts::5             9306                       # Per bank write bursts
system.mem_ctrls1.perBankRdBursts::6             9259                       # Per bank write bursts
system.mem_ctrls1.perBankRdBursts::7             9223                       # Per bank write bursts
system.mem_ctrls1.perBankRdBursts::8             9187                       # Per bank write bursts
system.mem_ctrls1.perBankRdBursts::9             9342                       # Per bank write bursts
system.mem_ctrls1.perBankRdBursts::10           10316                       # Per bank write bursts
system.mem_ctrls1.perBankRdBursts::11           10395                       # Per bank write bursts
system.mem_ctrls1.perBankRdBursts::12           11018                       # Per bank write bursts
system.mem_ctrls1.perBankRdBursts::13           11196                       # Per bank write bursts
system.mem_ctrls1.perBankRdBursts::14           10650                       # Per bank write bursts
system.mem_ctrls1.perBankRdBursts::15           10418                       # Per bank write bursts
system.mem_ctrls1.perBankWrBursts::0             1381                       # Per bank write bursts
system.mem_ctrls1.perBankWrBursts::1             1213                       # Per bank write bursts
system.mem_ctrls1.perBankWrBursts::2             1189                       # Per bank write bursts
system.mem_ctrls1.perBankWrBursts::3             1226                       # Per bank write bursts
system.mem_ctrls1.perBankWrBursts::4             1070                       # Per bank write bursts
system.mem_ctrls1.perBankWrBursts::5              984                       # Per bank write bursts
system.mem_ctrls1.perBankWrBursts::6              940                       # Per bank write bursts
system.mem_ctrls1.perBankWrBursts::7              910                       # Per bank write bursts
system.mem_ctrls1.perBankWrBursts::8              924                       # Per bank write bursts
system.mem_ctrls1.perBankWrBursts::9              950                       # Per bank write bursts
system.mem_ctrls1.perBankWrBursts::10            1215                       # Per bank write bursts
system.mem_ctrls1.perBankWrBursts::11            1313                       # Per bank write bursts
system.mem_ctrls1.perBankWrBursts::12            1459                       # Per bank write bursts
system.mem_ctrls1.perBankWrBursts::13            1490                       # Per bank write bursts
system.mem_ctrls1.perBankWrBursts::14            1393                       # Per bank write bursts
system.mem_ctrls1.perBankWrBursts::15            1371                       # Per bank write bursts
system.mem_ctrls1.numRdRetry                        0                       # Number of times read queue was full causing retry
system.mem_ctrls1.numWrRetry                        0                       # Number of times write queue was full causing retry
system.mem_ctrls1.totGap                  15982463000                       # Total gap between requests
system.mem_ctrls1.readPktSize::0                    0                       # Read request sizes (log2)
system.mem_ctrls1.readPktSize::1                    0                       # Read request sizes (log2)
system.mem_ctrls1.readPktSize::2                    0                       # Read request sizes (log2)
system.mem_ctrls1.readPktSize::3                    0                       # Read request sizes (log2)
system.mem_ctrls1.readPktSize::4                    0                       # Read request sizes (log2)
system.mem_ctrls1.readPktSize::5                    0                       # Read request sizes (log2)
system.mem_ctrls1.readPktSize::6               160318                       # Read request sizes (log2)
system.mem_ctrls1.writePktSize::0                   0                       # Write request sizes (log2)
system.mem_ctrls1.writePktSize::1                   0                       # Write request sizes (log2)
system.mem_ctrls1.writePktSize::2                   0                       # Write request sizes (log2)
system.mem_ctrls1.writePktSize::3                   0                       # Write request sizes (log2)
system.mem_ctrls1.writePktSize::4                   0                       # Write request sizes (log2)
system.mem_ctrls1.writePktSize::5                   0                       # Write request sizes (log2)
system.mem_ctrls1.writePktSize::6               19057                       # Write request sizes (log2)
system.mem_ctrls1.rdQLenPdf::0                  78939                       # What read queue length does an incoming req see
system.mem_ctrls1.rdQLenPdf::1                  42949                       # What read queue length does an incoming req see
system.mem_ctrls1.rdQLenPdf::2                  21997                       # What read queue length does an incoming req see
system.mem_ctrls1.rdQLenPdf::3                  10222                       # What read queue length does an incoming req see
system.mem_ctrls1.rdQLenPdf::4                   4216                       # What read queue length does an incoming req see
system.mem_ctrls1.rdQLenPdf::5                   1392                       # What read queue length does an incoming req see
system.mem_ctrls1.rdQLenPdf::6                    428                       # What read queue length does an incoming req see
system.mem_ctrls1.rdQLenPdf::7                    127                       # What read queue length does an incoming req see
system.mem_ctrls1.rdQLenPdf::8                     30                       # What read queue length does an incoming req see
system.mem_ctrls1.rdQLenPdf::9                     11                       # What read queue length does an incoming req see
system.mem_ctrls1.rdQLenPdf::10                     0                       # What read queue length does an incoming req see
system.mem_ctrls1.rdQLenPdf::11                     0                       # What read queue length does an incoming req see
system.mem_ctrls1.rdQLenPdf::12                     0                       # What read queue length does an incoming req see
system.mem_ctrls1.rdQLenPdf::13                     0                       # What read queue length does an incoming req see
system.mem_ctrls1.rdQLenPdf::14                     0                       # What read queue length does an incoming req see
system.mem_ctrls1.rdQLenPdf::15                     0                       # What read queue length does an incoming req see
system.mem_ctrls1.rdQLenPdf::16                     0                       # What read queue length does an incoming req see
system.mem_ctrls1.rdQLenPdf::17                     0                       # What read queue length does an incoming req see
system.mem_ctrls1.rdQLenPdf::18                     0                       # What read queue length does an incoming req see
system.mem_ctrls1.rdQLenPdf::19                     0                       # What read queue length does an incoming req see
system.mem_ctrls1.rdQLenPdf::20                     0                       # What read queue length does an incoming req see
system.mem_ctrls1.rdQLenPdf::21                     0                       # What read queue length does an incoming req see
system.mem_ctrls1.rdQLenPdf::22                     0                       # What read queue length does an incoming req see
system.mem_ctrls1.rdQLenPdf::23                     0                       # What read queue length does an incoming req see
system.mem_ctrls1.rdQLenPdf::24                     0                       # What read queue length does an incoming req see
system.mem_ctrls1.rdQLenPdf::25                     0                       # What read queue length does an incoming req see
system.mem_ctrls1.rdQLenPdf::26                     0                       # What read queue length does an incoming req see
system.mem_ctrls1.rdQLenPdf::27                     0                       # What read queue length does an incoming req see
system.mem_ctrls1.rdQLenPdf::28                     0                       # What read queue length does an incoming req see
system.mem_ctrls1.rdQLenPdf::29                     0                       # What read queue length does an incoming req see
system.mem_ctrls1.rdQLenPdf::30                     0                       # What read queue length does an incoming req see
system.mem_ctrls1.rdQLenPdf::31                     0                       # What read queue length does an incoming req see
system.mem_ctrls1.wrQLenPdf::0                      1                       # What write queue length does an incoming req see
system.mem_ctrls1.wrQLenPdf::1                      1                       # What write queue length does an incoming req see
system.mem_ctrls1.wrQLenPdf::2                      1                       # What write queue length does an incoming req see
system.mem_ctrls1.wrQLenPdf::3                      1                       # What write queue length does an incoming req see
system.mem_ctrls1.wrQLenPdf::4                      1                       # What write queue length does an incoming req see
system.mem_ctrls1.wrQLenPdf::5                      1                       # What write queue length does an incoming req see
system.mem_ctrls1.wrQLenPdf::6                      1                       # What write queue length does an incoming req see
system.mem_ctrls1.wrQLenPdf::7                      1                       # What write queue length does an incoming req see
system.mem_ctrls1.wrQLenPdf::8                      1                       # What write queue length does an incoming req see
system.mem_ctrls1.wrQLenPdf::9                      1                       # What write queue length does an incoming req see
system.mem_ctrls1.wrQLenPdf::10                     1                       # What write queue length does an incoming req see
system.mem_ctrls1.wrQLenPdf::11                     1                       # What write queue length does an incoming req see
system.mem_ctrls1.wrQLenPdf::12                     1                       # What write queue length does an incoming req see
system.mem_ctrls1.wrQLenPdf::13                     1                       # What write queue length does an incoming req see
system.mem_ctrls1.wrQLenPdf::14                     1                       # What write queue length does an incoming req see
system.mem_ctrls1.wrQLenPdf::15                   294                       # What write queue length does an incoming req see
system.mem_ctrls1.wrQLenPdf::16                   352                       # What write queue length does an incoming req see
system.mem_ctrls1.wrQLenPdf::17                   797                       # What write queue length does an incoming req see
system.mem_ctrls1.wrQLenPdf::18                  1075                       # What write queue length does an incoming req see
system.mem_ctrls1.wrQLenPdf::19                  1181                       # What write queue length does an incoming req see
system.mem_ctrls1.wrQLenPdf::20                  1197                       # What write queue length does an incoming req see
system.mem_ctrls1.wrQLenPdf::21                  1179                       # What write queue length does an incoming req see
system.mem_ctrls1.wrQLenPdf::22                  1190                       # What write queue length does an incoming req see
system.mem_ctrls1.wrQLenPdf::23                  1182                       # What write queue length does an incoming req see
system.mem_ctrls1.wrQLenPdf::24                  1172                       # What write queue length does an incoming req see
system.mem_ctrls1.wrQLenPdf::25                  1182                       # What write queue length does an incoming req see
system.mem_ctrls1.wrQLenPdf::26                  1183                       # What write queue length does an incoming req see
system.mem_ctrls1.wrQLenPdf::27                  1168                       # What write queue length does an incoming req see
system.mem_ctrls1.wrQLenPdf::28                  1176                       # What write queue length does an incoming req see
system.mem_ctrls1.wrQLenPdf::29                  1166                       # What write queue length does an incoming req see
system.mem_ctrls1.wrQLenPdf::30                  1178                       # What write queue length does an incoming req see
system.mem_ctrls1.wrQLenPdf::31                  1168                       # What write queue length does an incoming req see
system.mem_ctrls1.wrQLenPdf::32                  1165                       # What write queue length does an incoming req see
system.mem_ctrls1.wrQLenPdf::33                    33                       # What write queue length does an incoming req see
system.mem_ctrls1.wrQLenPdf::34                     4                       # What write queue length does an incoming req see
system.mem_ctrls1.wrQLenPdf::35                     0                       # What write queue length does an incoming req see
system.mem_ctrls1.wrQLenPdf::36                     0                       # What write queue length does an incoming req see
system.mem_ctrls1.wrQLenPdf::37                     0                       # What write queue length does an incoming req see
system.mem_ctrls1.wrQLenPdf::38                     0                       # What write queue length does an incoming req see
system.mem_ctrls1.wrQLenPdf::39                     0                       # What write queue length does an incoming req see
system.mem_ctrls1.wrQLenPdf::40                     0                       # What write queue length does an incoming req see
system.mem_ctrls1.wrQLenPdf::41                     0                       # What write queue length does an incoming req see
system.mem_ctrls1.wrQLenPdf::42                     0                       # What write queue length does an incoming req see
system.mem_ctrls1.wrQLenPdf::43                     0                       # What write queue length does an incoming req see
system.mem_ctrls1.wrQLenPdf::44                     0                       # What write queue length does an incoming req see
system.mem_ctrls1.wrQLenPdf::45                     0                       # What write queue length does an incoming req see
system.mem_ctrls1.wrQLenPdf::46                     0                       # What write queue length does an incoming req see
system.mem_ctrls1.wrQLenPdf::47                     0                       # What write queue length does an incoming req see
system.mem_ctrls1.wrQLenPdf::48                     0                       # What write queue length does an incoming req see
system.mem_ctrls1.wrQLenPdf::49                     0                       # What write queue length does an incoming req see
system.mem_ctrls1.wrQLenPdf::50                     0                       # What write queue length does an incoming req see
system.mem_ctrls1.wrQLenPdf::51                     0                       # What write queue length does an incoming req see
system.mem_ctrls1.wrQLenPdf::52                     0                       # What write queue length does an incoming req see
system.mem_ctrls1.wrQLenPdf::53                     0                       # What write queue length does an incoming req see
system.mem_ctrls1.wrQLenPdf::54                     0                       # What write queue length does an incoming req see
system.mem_ctrls1.wrQLenPdf::55                     0                       # What write queue length does an incoming req see
system.mem_ctrls1.wrQLenPdf::56                     0                       # What write queue length does an incoming req see
system.mem_ctrls1.wrQLenPdf::57                     0                       # What write queue length does an incoming req see
system.mem_ctrls1.wrQLenPdf::58                     0                       # What write queue length does an incoming req see
system.mem_ctrls1.wrQLenPdf::59                     0                       # What write queue length does an incoming req see
system.mem_ctrls1.wrQLenPdf::60                     0                       # What write queue length does an incoming req see
system.mem_ctrls1.wrQLenPdf::61                     0                       # What write queue length does an incoming req see
system.mem_ctrls1.wrQLenPdf::62                     0                       # What write queue length does an incoming req see
system.mem_ctrls1.wrQLenPdf::63                     0                       # What write queue length does an incoming req see
system.mem_ctrls1.bytesPerActivate::samples       106468                       # Bytes accessed per row activation
system.mem_ctrls1.bytesPerActivate::mean   107.798775                       # Bytes accessed per row activation
system.mem_ctrls1.bytesPerActivate::gmean    85.484058                       # Bytes accessed per row activation
system.mem_ctrls1.bytesPerActivate::stdev   113.396429                       # Bytes accessed per row activation
system.mem_ctrls1.bytesPerActivate::0-127        78229     73.48%     73.48% # Bytes accessed per row activation
system.mem_ctrls1.bytesPerActivate::128-255        19242     18.07%     91.55% # Bytes accessed per row activation
system.mem_ctrls1.bytesPerActivate::256-383         3806      3.57%     95.12% # Bytes accessed per row activation
system.mem_ctrls1.bytesPerActivate::384-511         2232      2.10%     97.22% # Bytes accessed per row activation
system.mem_ctrls1.bytesPerActivate::512-639         1414      1.33%     98.55% # Bytes accessed per row activation
system.mem_ctrls1.bytesPerActivate::640-767         1056      0.99%     99.54% # Bytes accessed per row activation
system.mem_ctrls1.bytesPerActivate::768-895          197      0.19%     99.73% # Bytes accessed per row activation
system.mem_ctrls1.bytesPerActivate::896-1023          155      0.15%     99.87% # Bytes accessed per row activation
system.mem_ctrls1.bytesPerActivate::1024-1151          137      0.13%    100.00% # Bytes accessed per row activation
system.mem_ctrls1.bytesPerActivate::total       106468                       # Bytes accessed per row activation
system.mem_ctrls1.rdPerTurnAround::samples         1147                       # Reads before turning the bus around for writes
system.mem_ctrls1.rdPerTurnAround::mean    139.745423                       # Reads before turning the bus around for writes
system.mem_ctrls1.rdPerTurnAround::gmean    55.730979                       # Reads before turning the bus around for writes
system.mem_ctrls1.rdPerTurnAround::stdev  1865.526078                       # Reads before turning the bus around for writes
system.mem_ctrls1.rdPerTurnAround::0-2047         1144     99.74%     99.74% # Reads before turning the bus around for writes
system.mem_ctrls1.rdPerTurnAround::2048-4095            2      0.17%     99.91% # Reads before turning the bus around for writes
system.mem_ctrls1.rdPerTurnAround::61440-63487            1      0.09%    100.00% # Reads before turning the bus around for writes
system.mem_ctrls1.rdPerTurnAround::total         1147                       # Reads before turning the bus around for writes
system.mem_ctrls1.wrPerTurnAround::samples         1147                       # Writes before turning the bus around for reads
system.mem_ctrls1.wrPerTurnAround::mean     16.589364                       # Writes before turning the bus around for reads
system.mem_ctrls1.wrPerTurnAround::gmean    16.564882                       # Writes before turning the bus around for reads
system.mem_ctrls1.wrPerTurnAround::stdev     0.917919                       # Writes before turning the bus around for reads
system.mem_ctrls1.wrPerTurnAround::16             799     69.66%     69.66% # Writes before turning the bus around for reads
system.mem_ctrls1.wrPerTurnAround::17              34      2.96%     72.62% # Writes before turning the bus around for reads
system.mem_ctrls1.wrPerTurnAround::18             302     26.33%     98.95% # Writes before turning the bus around for reads
system.mem_ctrls1.wrPerTurnAround::19              10      0.87%     99.83% # Writes before turning the bus around for reads
system.mem_ctrls1.wrPerTurnAround::20               2      0.17%    100.00% # Writes before turning the bus around for reads
system.mem_ctrls1.wrPerTurnAround::total         1147                       # Writes before turning the bus around for reads
system.mem_ctrls1.totQLat                  4836453000                       # Total ticks spent queuing
system.mem_ctrls1.totMemAccLat             7842284250                       # Total ticks spent from burst creation until serviced by the DRAM
system.mem_ctrls1.totBusLat                 801555000                       # Total ticks spent in databus transfers
system.mem_ctrls1.avgQLat                    30169.19                       # Average queueing delay per DRAM burst
system.mem_ctrls1.avgBusLat                   5000.00                       # Average bus latency per DRAM burst
system.mem_ctrls1.avgMemAccLat               48919.19                       # Average memory access latency per DRAM burst
system.mem_ctrls1.avgRdBW                      641.92                       # Average DRAM read bandwidth in MiByte/s
system.mem_ctrls1.avgWrBW                       76.19                       # Average achieved write bandwidth in MiByte/s
system.mem_ctrls1.avgRdBWSys                   641.95                       # Average system read bandwidth in MiByte/s
system.mem_ctrls1.avgWrBWSys                    76.31                       # Average system write bandwidth in MiByte/s
system.mem_ctrls1.peakBW                     12800.00                       # Theoretical peak bandwidth in MiByte/s
system.mem_ctrls1.busUtil                        5.61                       # Data bus utilization in percentage
system.mem_ctrls1.busUtilRead                    5.02                       # Data bus utilization in percentage for reads
system.mem_ctrls1.busUtilWrite                   0.60                       # Data bus utilization in percentage for writes
system.mem_ctrls1.avgRdQLen                      1.55                       # Average read queue length when enqueuing
system.mem_ctrls1.avgWrQLen                     13.47                       # Average write queue length when enqueuing
system.mem_ctrls1.readRowHits                   68902                       # Number of row buffer hits during reads
system.mem_ctrls1.writeRowHits                   3964                       # Number of row buffer hits during writes
system.mem_ctrls1.readRowHitRate                42.98                       # Row buffer hit rate for reads
system.mem_ctrls1.writeRowHitRate               20.80                       # Row buffer hit rate for writes
system.mem_ctrls1.avgGap                     89100.84                       # Average gap between requests
system.mem_ctrls1.pageHitRate                   40.62                       # Row buffer hit rate, read and write combined
system.mem_ctrls1_0.actEnergy               363733020                       # Energy for activate commands per rank (pJ)
system.mem_ctrls1_0.preEnergy               193317300                       # Energy for precharge commands per rank (pJ)
system.mem_ctrls1_0.readEnergy              555413460                       # Energy for read commands per rank (pJ)
system.mem_ctrls1_0.writeEnergy              46525860                       # Energy for write commands per rank (pJ)
system.mem_ctrls1_0.refreshEnergy        1261241280.000000                       # Energy for refresh commands per rank (pJ)
system.mem_ctrls1_0.actBackEnergy          1532700930                       # Energy for active background per rank (pJ)
system.mem_ctrls1_0.preBackEnergy            33920640                       # Energy for precharge background per rank (pJ)
system.mem_ctrls1_0.actPowerDownEnergy     5238807300                       # Energy for active power-down per rank (pJ)
system.mem_ctrls1_0.prePowerDownEnergy      302606880                       # Energy for precharge power-down per rank (pJ)
system.mem_ctrls1_0.selfRefreshEnergy        81066615                       # Energy for self refresh per rank (pJ)
system.mem_ctrls1_0.totalEnergy            9609570855                       # Total energy per rank (pJ)
system.mem_ctrls1_0.averagePower           601.235112                       # Core power per rank (mW)
system.mem_ctrls1_0.totalIdleTime         12532795000                       # Total Idle time Per DRAM Rank
system.mem_ctrls1_0.memoryStateTime::IDLE     21737750                       # Time in different power states
system.mem_ctrls1_0.memoryStateTime::REF    533808000                       # Time in different power states
system.mem_ctrls1_0.memoryStateTime::SREF    256349250                       # Time in different power states
system.mem_ctrls1_0.memoryStateTime::PRE_PDN    788057750                       # Time in different power states
system.mem_ctrls1_0.memoryStateTime::ACT   2894058000                       # Time in different power states
system.mem_ctrls1_0.memoryStateTime::ACT_PDN  11489038750                       # Time in different power states
system.mem_ctrls1_1.actEnergy               396484200                       # Energy for activate commands per rank (pJ)
system.mem_ctrls1_1.preEnergy               210728760                       # Energy for precharge commands per rank (pJ)
system.mem_ctrls1_1.readEnergy              589207080                       # Energy for read commands per rank (pJ)
system.mem_ctrls1_1.writeEnergy              52800300                       # Energy for write commands per rank (pJ)
system.mem_ctrls1_1.refreshEnergy        1237270320.000000                       # Energy for refresh commands per rank (pJ)
system.mem_ctrls1_1.actBackEnergy          1599947250                       # Energy for active background per rank (pJ)
system.mem_ctrls1_1.preBackEnergy            32286240                       # Energy for precharge background per rank (pJ)
system.mem_ctrls1_1.actPowerDownEnergy     5117994090                       # Energy for active power-down per rank (pJ)
system.mem_ctrls1_1.prePowerDownEnergy      258260160                       # Energy for precharge power-down per rank (pJ)
system.mem_ctrls1_1.selfRefreshEnergy       132999150                       # Energy for self refresh per rank (pJ)
system.mem_ctrls1_1.totalEnergy            9628135170                       # Total energy per rank (pJ)
system.mem_ctrls1_1.averagePower           602.396518                       # Core power per rank (mW)
system.mem_ctrls1_1.totalIdleTime         12390175500                       # Total Idle time Per DRAM Rank
system.mem_ctrls1_1.memoryStateTime::IDLE     17648250                       # Time in different power states
system.mem_ctrls1_1.memoryStateTime::REF    523572000                       # Time in different power states
system.mem_ctrls1_1.memoryStateTime::SREF    493748750                       # Time in different power states
system.mem_ctrls1_1.memoryStateTime::PRE_PDN    672383750                       # Time in different power states
system.mem_ctrls1_1.memoryStateTime::ACT   3051500750                       # Time in different power states
system.mem_ctrls1_1.memoryStateTime::ACT_PDN  11224196000                       # Time in different power states
system.mem_ctrls2.pwrStateResidencyTicks::UNDEFINED  15983049500                       # Cumulative time (in ticks) in various power states
system.mem_ctrls2.bytes_read::ruby.dir_cntrl2     10275712                       # Number of bytes read from this memory
system.mem_ctrls2.bytes_read::total          10275712                       # Number of bytes read from this memory
system.mem_ctrls2.bytes_written::ruby.dir_cntrl2      1227904                       # Number of bytes written to this memory
system.mem_ctrls2.bytes_written::total        1227904                       # Number of bytes written to this memory
system.mem_ctrls2.num_reads::ruby.dir_cntrl2       160558                       # Number of read requests responded to by this memory
system.mem_ctrls2.num_reads::total             160558                       # Number of read requests responded to by this memory
system.mem_ctrls2.num_writes::ruby.dir_cntrl2        19186                       # Number of write requests responded to by this memory
system.mem_ctrls2.num_writes::total             19186                       # Number of write requests responded to by this memory
system.mem_ctrls2.bw_read::ruby.dir_cntrl2    642913106                       # Total read bandwidth from this memory (bytes/s)
system.mem_ctrls2.bw_read::total            642913106                       # Total read bandwidth from this memory (bytes/s)
system.mem_ctrls2.bw_write::ruby.dir_cntrl2     76825389                       # Write bandwidth from this memory (bytes/s)
system.mem_ctrls2.bw_write::total            76825389                       # Write bandwidth from this memory (bytes/s)
system.mem_ctrls2.bw_total::ruby.dir_cntrl2    719738495                       # Total bandwidth to/from this memory (bytes/s)
system.mem_ctrls2.bw_total::total           719738495                       # Total bandwidth to/from this memory (bytes/s)
system.mem_ctrls2.readReqs                     160558                       # Number of read requests accepted
system.mem_ctrls2.avgNetLat                      0.00                       # Average network latency to DRAM controller
system.mem_ctrls2.writeReqs                     19186                       # Number of write requests accepted
system.mem_ctrls2.readBursts                   160558                       # Number of DRAM read bursts, including those serviced by the write queue
system.mem_ctrls2.writeBursts                   19186                       # Number of DRAM write bursts, including those merged in the write queue
system.mem_ctrls2.bytesReadDRAM              10275392                       # Total number of bytes read from DRAM
system.mem_ctrls2.bytesReadWrQ                    320                       # Total number of bytes read from write queue
system.mem_ctrls2.bytesWritten                1226304                       # Total number of bytes written to DRAM
system.mem_ctrls2.bytesReadSys               10275712                       # Total read bytes from the system interface side
system.mem_ctrls2.bytesWrittenSys             1227904                       # Total written bytes from the system interface side
system.mem_ctrls2.servicedByWrQ                     5                       # Number of DRAM read bursts serviced by the write queue
system.mem_ctrls2.mergedWrBursts                    0                       # Number of DRAM write bursts merged with an existing one
system.mem_ctrls2.neitherReadNorWriteReqs            0                       # Number of requests that are neither read nor write
system.mem_ctrls2.perBankRdBursts::0            10270                       # Per bank write bursts
system.mem_ctrls2.perBankRdBursts::1            10161                       # Per bank write bursts
system.mem_ctrls2.perBankRdBursts::2             9933                       # Per bank write bursts
system.mem_ctrls2.perBankRdBursts::3             9974                       # Per bank write bursts
system.mem_ctrls2.perBankRdBursts::4             9626                       # Per bank write bursts
system.mem_ctrls2.perBankRdBursts::5             9289                       # Per bank write bursts
system.mem_ctrls2.perBankRdBursts::6             9262                       # Per bank write bursts
system.mem_ctrls2.perBankRdBursts::7             9265                       # Per bank write bursts
system.mem_ctrls2.perBankRdBursts::8             9191                       # Per bank write bursts
system.mem_ctrls2.perBankRdBursts::9             9357                       # Per bank write bursts
system.mem_ctrls2.perBankRdBursts::10           10332                       # Per bank write bursts
system.mem_ctrls2.perBankRdBursts::11           10395                       # Per bank write bursts
system.mem_ctrls2.perBankRdBursts::12           11066                       # Per bank write bursts
system.mem_ctrls2.perBankRdBursts::13           11279                       # Per bank write bursts
system.mem_ctrls2.perBankRdBursts::14           10773                       # Per bank write bursts
system.mem_ctrls2.perBankRdBursts::15           10380                       # Per bank write bursts
system.mem_ctrls2.perBankWrBursts::0             1395                       # Per bank write bursts
system.mem_ctrls2.perBankWrBursts::1             1216                       # Per bank write bursts
system.mem_ctrls2.perBankWrBursts::2             1189                       # Per bank write bursts
system.mem_ctrls2.perBankWrBursts::3             1208                       # Per bank write bursts
system.mem_ctrls2.perBankWrBursts::4             1077                       # Per bank write bursts
system.mem_ctrls2.perBankWrBursts::5              997                       # Per bank write bursts
system.mem_ctrls2.perBankWrBursts::6              956                       # Per bank write bursts
system.mem_ctrls2.perBankWrBursts::7              916                       # Per bank write bursts
system.mem_ctrls2.perBankWrBursts::8              921                       # Per bank write bursts
system.mem_ctrls2.perBankWrBursts::9              968                       # Per bank write bursts
system.mem_ctrls2.perBankWrBursts::10            1232                       # Per bank write bursts
system.mem_ctrls2.perBankWrBursts::11            1301                       # Per bank write bursts
system.mem_ctrls2.perBankWrBursts::12            1480                       # Per bank write bursts
system.mem_ctrls2.perBankWrBursts::13            1555                       # Per bank write bursts
system.mem_ctrls2.perBankWrBursts::14            1426                       # Per bank write bursts
system.mem_ctrls2.perBankWrBursts::15            1324                       # Per bank write bursts
system.mem_ctrls2.numRdRetry                        0                       # Number of times read queue was full causing retry
system.mem_ctrls2.numWrRetry                        0                       # Number of times write queue was full causing retry
system.mem_ctrls2.totGap                  15982098500                       # Total gap between requests
system.mem_ctrls2.readPktSize::0                    0                       # Read request sizes (log2)
system.mem_ctrls2.readPktSize::1                    0                       # Read request sizes (log2)
system.mem_ctrls2.readPktSize::2                    0                       # Read request sizes (log2)
system.mem_ctrls2.readPktSize::3                    0                       # Read request sizes (log2)
system.mem_ctrls2.readPktSize::4                    0                       # Read request sizes (log2)
system.mem_ctrls2.readPktSize::5                    0                       # Read request sizes (log2)
system.mem_ctrls2.readPktSize::6               160558                       # Read request sizes (log2)
system.mem_ctrls2.writePktSize::0                   0                       # Write request sizes (log2)
system.mem_ctrls2.writePktSize::1                   0                       # Write request sizes (log2)
system.mem_ctrls2.writePktSize::2                   0                       # Write request sizes (log2)
system.mem_ctrls2.writePktSize::3                   0                       # Write request sizes (log2)
system.mem_ctrls2.writePktSize::4                   0                       # Write request sizes (log2)
system.mem_ctrls2.writePktSize::5                   0                       # Write request sizes (log2)
system.mem_ctrls2.writePktSize::6               19186                       # Write request sizes (log2)
system.mem_ctrls2.rdQLenPdf::0                  79613                       # What read queue length does an incoming req see
system.mem_ctrls2.rdQLenPdf::1                  43301                       # What read queue length does an incoming req see
system.mem_ctrls2.rdQLenPdf::2                  22035                       # What read queue length does an incoming req see
system.mem_ctrls2.rdQLenPdf::3                   9958                       # What read queue length does an incoming req see
system.mem_ctrls2.rdQLenPdf::4                   3825                       # What read queue length does an incoming req see
system.mem_ctrls2.rdQLenPdf::5                   1272                       # What read queue length does an incoming req see
system.mem_ctrls2.rdQLenPdf::6                    417                       # What read queue length does an incoming req see
system.mem_ctrls2.rdQLenPdf::7                    104                       # What read queue length does an incoming req see
system.mem_ctrls2.rdQLenPdf::8                     19                       # What read queue length does an incoming req see
system.mem_ctrls2.rdQLenPdf::9                      4                       # What read queue length does an incoming req see
system.mem_ctrls2.rdQLenPdf::10                     3                       # What read queue length does an incoming req see
system.mem_ctrls2.rdQLenPdf::11                     2                       # What read queue length does an incoming req see
system.mem_ctrls2.rdQLenPdf::12                     0                       # What read queue length does an incoming req see
system.mem_ctrls2.rdQLenPdf::13                     0                       # What read queue length does an incoming req see
system.mem_ctrls2.rdQLenPdf::14                     0                       # What read queue length does an incoming req see
system.mem_ctrls2.rdQLenPdf::15                     0                       # What read queue length does an incoming req see
system.mem_ctrls2.rdQLenPdf::16                     0                       # What read queue length does an incoming req see
system.mem_ctrls2.rdQLenPdf::17                     0                       # What read queue length does an incoming req see
system.mem_ctrls2.rdQLenPdf::18                     0                       # What read queue length does an incoming req see
system.mem_ctrls2.rdQLenPdf::19                     0                       # What read queue length does an incoming req see
system.mem_ctrls2.rdQLenPdf::20                     0                       # What read queue length does an incoming req see
system.mem_ctrls2.rdQLenPdf::21                     0                       # What read queue length does an incoming req see
system.mem_ctrls2.rdQLenPdf::22                     0                       # What read queue length does an incoming req see
system.mem_ctrls2.rdQLenPdf::23                     0                       # What read queue length does an incoming req see
system.mem_ctrls2.rdQLenPdf::24                     0                       # What read queue length does an incoming req see
system.mem_ctrls2.rdQLenPdf::25                     0                       # What read queue length does an incoming req see
system.mem_ctrls2.rdQLenPdf::26                     0                       # What read queue length does an incoming req see
system.mem_ctrls2.rdQLenPdf::27                     0                       # What read queue length does an incoming req see
system.mem_ctrls2.rdQLenPdf::28                     0                       # What read queue length does an incoming req see
system.mem_ctrls2.rdQLenPdf::29                     0                       # What read queue length does an incoming req see
system.mem_ctrls2.rdQLenPdf::30                     0                       # What read queue length does an incoming req see
system.mem_ctrls2.rdQLenPdf::31                     0                       # What read queue length does an incoming req see
system.mem_ctrls2.wrQLenPdf::0                      1                       # What write queue length does an incoming req see
system.mem_ctrls2.wrQLenPdf::1                      1                       # What write queue length does an incoming req see
system.mem_ctrls2.wrQLenPdf::2                      1                       # What write queue length does an incoming req see
system.mem_ctrls2.wrQLenPdf::3                      1                       # What write queue length does an incoming req see
system.mem_ctrls2.wrQLenPdf::4                      1                       # What write queue length does an incoming req see
system.mem_ctrls2.wrQLenPdf::5                      1                       # What write queue length does an incoming req see
system.mem_ctrls2.wrQLenPdf::6                      1                       # What write queue length does an incoming req see
system.mem_ctrls2.wrQLenPdf::7                      1                       # What write queue length does an incoming req see
system.mem_ctrls2.wrQLenPdf::8                      1                       # What write queue length does an incoming req see
system.mem_ctrls2.wrQLenPdf::9                      1                       # What write queue length does an incoming req see
system.mem_ctrls2.wrQLenPdf::10                     1                       # What write queue length does an incoming req see
system.mem_ctrls2.wrQLenPdf::11                     1                       # What write queue length does an incoming req see
system.mem_ctrls2.wrQLenPdf::12                     1                       # What write queue length does an incoming req see
system.mem_ctrls2.wrQLenPdf::13                     1                       # What write queue length does an incoming req see
system.mem_ctrls2.wrQLenPdf::14                     1                       # What write queue length does an incoming req see
system.mem_ctrls2.wrQLenPdf::15                   301                       # What write queue length does an incoming req see
system.mem_ctrls2.wrQLenPdf::16                   358                       # What write queue length does an incoming req see
system.mem_ctrls2.wrQLenPdf::17                   805                       # What write queue length does an incoming req see
system.mem_ctrls2.wrQLenPdf::18                  1123                       # What write queue length does an incoming req see
system.mem_ctrls2.wrQLenPdf::19                  1177                       # What write queue length does an incoming req see
system.mem_ctrls2.wrQLenPdf::20                  1195                       # What write queue length does an incoming req see
system.mem_ctrls2.wrQLenPdf::21                  1205                       # What write queue length does an incoming req see
[...]
system.ruby.L2Cache_Controller.M.L1_GET_INSTR |          14     25.00%     25.00% |           0      0.00%     25.00% |           0      0.00%     25.00% |           0      0.00%     25.00% |           0      0.00%     25.00% |           0      0.00%     25.00% |           0      0.00%     25.00% |           0      0.00%     25.00% |          14     25.00%     50.00% |          14     25.00%     75.00% |           0      0.00%     75.00% |           0      0.00%     75.00% |           0      0.00%     75.00% |           0      0.00%     75.00% |          14     25.00%    100.00% |           0      0.00%    100.00%
system.ruby.L2Cache_Controller.M.L1_GET_INSTR::total           56                      
system.ruby.L2Cache_Controller.M.L1_GETS |        9505      6.15%      6.15% |        9738      6.31%     12.46% |        9546      6.18%     18.64% |        9746      6.31%     24.95% |        9347      6.05%     31.00% |        9185      5.95%     36.95% |        9248      5.99%     42.94% |        9480      6.14%     49.08% |        9517      6.16%     55.24% |        9302      6.02%     61.26% |       10811      7.00%     68.26% |       10186      6.60%     74.86% |        9902      6.41%     81.27% |       10088      6.53%     87.80% |        9846      6.38%     94.18% |        8988      5.82%    100.00%
system.ruby.L2Cache_Controller.M.L1_GETS::total       154435                      
system.ruby.L2Cache_Controller.M.L1_GETX |        1255      5.97%      5.97% |        1342      6.38%     12.35% |        1438      6.84%     19.19% |        1489      7.08%     26.27% |        1280      6.09%     32.36% |        1218      5.79%     38.16% |        1157      5.50%     43.66% |        1318      6.27%     49.93% |        1233      5.86%     55.79% |        1265      6.02%     61.81% |        1859      8.84%     70.65% |        1232      5.86%     76.51% |        1221      5.81%     82.32% |        1149      5.47%     87.79% |        1263      6.01%     93.79% |        1305      6.21%    100.00%
system.ruby.L2Cache_Controller.M.L1_GETX::total        21024                      
system.ruby.L2Cache_Controller.M.L2_Replacement |        4823      6.35%      6.35% |        4746      6.25%     12.60% |        4730      6.23%     18.82% |        4786      6.30%     25.12% |        4683      6.16%     31.29% |        4689      6.17%     37.46% |        4709      6.20%     43.66% |        4791      6.31%     49.97% |        4753      6.26%     56.22% |        4653      6.13%     62.35% |        4723      6.22%     68.56% |        4704      6.19%     74.76% |        4769      6.28%     81.03% |        4816      6.34%     87.37% |        4851      6.39%     93.76% |        4741      6.24%    100.00%
system.ruby.L2Cache_Controller.M.L2_Replacement::total        75967                      
system.ruby.L2Cache_Controller.M.L2_Replacement_clean |        3212      6.32%      6.32% |        3090      6.08%     12.39% |        3004      5.91%     18.30% |        3175      6.24%     24.54% |        3088      6.07%     30.62% |        3157      6.21%     36.82% |        3162      6.22%     43.04% |        3222      6.34%     49.38% |        3293      6.48%     55.85% |        3096      6.09%     61.94% |        3189      6.27%     68.21% |        3215      6.32%     74.53% |        3267      6.42%     80.96% |        3232      6.36%     87.31% |        3208      6.31%     93.62% |        3244      6.38%    100.00%
system.ruby.L2Cache_Controller.M.L2_Replacement_clean::total        50854                      
system.ruby.L2Cache_Controller.MT.L1_GETS |          70      3.97%      3.97% |          70      3.97%      7.95% |          98      5.56%     13.51% |          98      5.56%     19.07% |          98      5.56%     24.63% |         140      7.95%     32.58% |         140      7.95%     40.52% |         140      7.95%     48.47% |         138      7.83%     56.30% |         138      7.83%     64.13% |         132      7.49%     71.62% |         136      7.72%     79.34% |         112      6.36%     85.70% |         112      6.36%     92.05% |          70      3.97%     96.03% |          70      3.97%    100.00%
system.ruby.L2Cache_Controller.MT.L1_GETS::total         1762                      
system.ruby.L2Cache_Controller.MT.L1_GETX |           0      0.00%      0.00% |           0      0.00%      0.00% |           0      0.00%      0.00% |           0      0.00%      0.00% |           0      0.00%      0.00% |           0      0.00%      0.00% |           0      0.00%      0.00% |           0      0.00%      0.00% |           1     12.50%     12.50% |           1     12.50%     25.00% |           4     50.00%     75.00% |           2     25.00%    100.00% |           0      0.00%    100.00% |           0      0.00%    100.00% |           0      0.00%    100.00% |           0      0.00%    100.00%
system.ruby.L2Cache_Controller.MT.L1_GETX::total            8                      
system.ruby.L2Cache_Controller.MT.L1_PUTX |       48716      6.23%      6.23% |       48818      6.25%     12.48% |       48561      6.21%     18.69% |       49140      6.29%     24.98% |       48275      6.18%     31.16% |       48213      6.17%     37.33% |       48319      6.18%     43.51% |       48762      6.24%     49.75% |       48778      6.24%     55.99% |       48300      6.18%     62.17% |       50515      6.46%     68.64% |       49281      6.31%     74.94% |       49227      6.30%     81.24% |       49319      6.31%     87.55% |       49017      6.27%     93.83% |       48241      6.17%    100.00%
system.ruby.L2Cache_Controller.MT.L1_PUTX::total       781482                      
system.ruby.L2Cache_Controller.MT.L2_Replacement |           7      7.14%      7.14% |           5      5.10%     12.24% |           8      8.16%     20.41% |           7      7.14%     27.55% |           8      8.16%     35.71% |           4      4.08%     39.80% |           8      8.16%     47.96% |           7      7.14%     55.10% |           7      7.14%     62.24% |           5      5.10%     67.35% |           9      9.18%     76.53% |           7      7.14%     83.67% |           6      6.12%     89.80% |           1      1.02%     90.82% |           7      7.14%     97.96% |           2      2.04%    100.00%
system.ruby.L2Cache_Controller.MT.L2_Replacement::total           98                      
system.ruby.L2Cache_Controller.MT.L2_Replacement_clean |          32      5.84%      5.84% |          27      4.93%     10.77% |          33      6.02%     16.79% |          34      6.20%     22.99% |          35      6.39%     29.38% |          37      6.75%     36.13% |          34      6.20%     42.34% |          31      5.66%     47.99% |          26      4.74%     52.74% |          38      6.93%     59.67% |          39      7.12%     66.79% |          34      6.20%     72.99% |          44      8.03%     81.02% |          36      6.57%     87.59% |          28      5.11%     92.70% |          40      7.30%    100.00%
system.ruby.L2Cache_Controller.MT.L2_Replacement_clean::total          548                      
system.ruby.L2Cache_Controller.M_I.L1_GET_INSTR |           0      0.00%      0.00% |           0      0.00%      0.00% |           1    100.00%    100.00% |           0      0.00%    100.00% |           0      0.00%    100.00% |           0      0.00%    100.00% |           0      0.00%    100.00% |           0      0.00%    100.00% |           0      0.00%    100.00% |           0      0.00%    100.00% |           0      0.00%    100.00% |           0      0.00%    100.00% |           0      0.00%    100.00% |           0      0.00%    100.00% |           0      0.00%    100.00% |           0      0.00%    100.00%
system.ruby.L2Cache_Controller.M_I.L1_GET_INSTR::total            1                      
system.ruby.L2Cache_Controller.M_I.Mem_Ack |        8673      6.31%      6.31% |        8526      6.20%     12.51% |        8472      6.16%     18.68% |        8598      6.26%     24.93% |        8423      6.13%     31.06% |        8568      6.23%     37.30% |        8571      6.24%     43.53% |        8646      6.29%     49.82% |        8753      6.37%     56.19% |        8325      6.06%     62.25% |        8515      6.20%     68.45% |        8555      6.22%     74.67% |        8697      6.33%     81.00% |        8699      6.33%     87.33% |        8769      6.38%     93.71% |        8648      6.29%    100.00%
system.ruby.L2Cache_Controller.M_I.Mem_Ack::total       137438                      
system.ruby.L2Cache_Controller.MT_I.WB_Data |           1      3.12%      3.12% |           2      6.25%      9.38% |           3      9.38%     18.75% |           1      3.12%     21.88% |           2      6.25%     28.12% |           3      9.38%     37.50% |           3      9.38%     46.88% |           2      6.25%     53.12% |           2      6.25%     59.38% |           3      9.38%     68.75% |           2      6.25%     75.00% |           3      9.38%     84.38% |           2      6.25%     90.62% |           0      0.00%     90.62% |           2      6.25%     96.88% |           1      3.12%    100.00%
system.ruby.L2Cache_Controller.MT_I.WB_Data::total           32                      
system.ruby.L2Cache_Controller.MT_I.Ack_all |           6      9.09%      9.09% |           3      4.55%     13.64% |           5      7.58%     21.21% |           6      9.09%     30.30% |           6      9.09%     39.39% |           1      1.52%     40.91% |           5      7.58%     48.48% |           5      7.58%     56.06% |           5      7.58%     63.64% |           2      3.03%     66.67% |           7     10.61%     77.27% |           4      6.06%     83.33% |           4      6.06%     89.39% |           1      1.52%     90.91% |           5      7.58%     98.48% |           1      1.52%    100.00%
system.ruby.L2Cache_Controller.MT_I.Ack_all::total           66                      
system.ruby.L2Cache_Controller.MCT_I.WB_Data |          32      6.20%      6.20% |          25      4.84%     11.05% |          33      6.40%     17.44% |          32      6.20%     23.64% |          33      6.40%     30.04% |          35      6.78%     36.82% |          33      6.40%     43.22% |          28      5.43%     48.64% |          25      4.84%     53.49% |          34      6.59%     60.08% |          36      6.98%     67.05% |          33      6.40%     73.45% |          39      7.56%     81.01% |          34      6.59%     87.60% |          27      5.23%     92.83% |          37      7.17%    100.00%
system.ruby.L2Cache_Controller.MCT_I.WB_Data::total          516                      
system.ruby.L2Cache_Controller.MCT_I.Ack_all |           0      0.00%      0.00% |           2      6.25%      6.25% |           0      0.00%      6.25% |           2      6.25%     12.50% |           2      6.25%     18.75% |           2      6.25%     25.00% |           1      3.12%     28.12% |           3      9.38%     37.50% |           1      3.12%     40.62% |           4     12.50%     53.12% |           3      9.38%     62.50% |           1      3.12%     65.62% |           5     15.62%     81.25% |           2      6.25%     87.50% |           1      3.12%     90.62% |           3      9.38%    100.00%
system.ruby.L2Cache_Controller.MCT_I.Ack_all::total           32                      
system.ruby.L2Cache_Controller.I_I.Ack_all |         597      6.02%      6.02% |         655      6.60%     12.62% |         695      7.00%     19.62% |         596      6.01%     25.63% |         603      6.08%     31.70% |         679      6.84%     38.55% |         654      6.59%     45.14% |         590      5.95%     51.08% |         671      6.76%     57.85% |         531      5.35%     63.20% |         551      5.55%     68.75% |         593      5.98%     74.73% |         607      6.12%     80.84% |         611      6.16%     87.00% |         673      6.78%     93.78% |         617      6.22%    100.00%
system.ruby.L2Cache_Controller.I_I.Ack_all::total         9923                      
system.ruby.L2Cache_Controller.S_I.Ack   |           2      4.17%      4.17% |           3      6.25%     10.42% |           2      4.17%     14.58% |           0      0.00%     14.58% |           6     12.50%     27.08% |           2      4.17%     31.25% |           4      8.33%     39.58% |           5     10.42%     50.00% |           3      6.25%     56.25% |           2      4.17%     60.42% |           4      8.33%     68.75% |           2      4.17%     72.92% |           4      8.33%     81.25% |           3      6.25%     87.50% |           2      4.17%     91.67% |           4      8.33%    100.00%
system.ruby.L2Cache_Controller.S_I.Ack::total           48                      
system.ruby.L2Cache_Controller.S_I.Ack_all |           2      4.17%      4.17% |           3      6.25%     10.42% |           2      4.17%     14.58% |           0      0.00%     14.58% |           6     12.50%     27.08% |           2      4.17%     31.25% |           4      8.33%     39.58% |           5     10.42%     50.00% |           3      6.25%     56.25% |           2      4.17%     60.42% |           4      8.33%     68.75% |           2      4.17%     72.92% |           4      8.33%     81.25% |           3      6.25%     87.50% |           2      4.17%     91.67% |           4      8.33%    100.00%
system.ruby.L2Cache_Controller.S_I.Ack_all::total           48                      
system.ruby.L2Cache_Controller.ISS.Mem_Data |       29333      6.27%      6.27% |       29037      6.21%     12.48% |       28833      6.17%     18.65% |       29220      6.25%     24.90% |       28964      6.19%     31.09% |       29162      6.24%     37.33% |       29248      6.25%     43.58% |       29292      6.26%     49.84% |       29396      6.29%     56.13% |       29143      6.23%     62.36% |       29226      6.25%     68.61% |       29281      6.26%     74.87% |       29507      6.31%     81.18% |       29443      6.30%     87.48% |       29263      6.26%     93.74% |       29295      6.26%    100.00%
system.ruby.L2Cache_Controller.ISS.Mem_Data::total       467643                      
system.ruby.L2Cache_Controller.IS.Mem_Data |        1367      6.42%      6.42% |        1373      6.44%     12.86% |        1505      7.06%     19.93% |        1302      6.11%     26.04% |        1354      6.36%     32.39% |        1346      6.32%     38.71% |        1290      6.06%     44.77% |        1303      6.12%     50.88% |        1370      6.43%     57.31% |        1170      5.49%     62.81% |        1254      5.89%     68.69% |        1272      5.97%     74.66% |        1232      5.78%     80.44% |        1305      6.13%     86.57% |        1514      7.11%     93.68% |        1347      6.32%    100.00%
system.ruby.L2Cache_Controller.IS.Mem_Data::total        21304                      
system.ruby.L2Cache_Controller.IM.Mem_Data |        9547      6.22%      6.22% |        9625      6.27%     12.50% |        9667      6.30%     18.80% |        9623      6.27%     25.08% |        9619      6.27%     31.35% |        9600      6.26%     37.60% |        9618      6.27%     43.88% |        9621      6.27%     50.15% |        9572      6.24%     56.39% |        9540      6.22%     62.61% |        9571      6.24%     68.85% |        9534      6.22%     75.06% |        9533      6.21%     81.28% |        9574      6.24%     87.52% |        9569      6.24%     93.76% |        9574      6.24%    100.00%
system.ruby.L2Cache_Controller.IM.Mem_Data::total       153387                      
system.ruby.L2Cache_Controller.SS_MB.Exclusive_Unblock |          42      3.93%      3.93% |          42      3.93%      7.85% |          70      6.54%     14.39% |          56      5.23%     19.63% |          56      5.23%     24.86% |          84      7.85%     32.71% |          84      7.85%     40.56% |          84      7.85%     48.41% |          83      7.76%     56.17% |          83      7.76%     63.93% |          80      7.48%     71.40% |          82      7.66%     79.07% |          70      6.54%     85.61% |          70      6.54%     92.15% |          42      3.93%     96.07% |          42      3.93%    100.00%
system.ruby.L2Cache_Controller.SS_MB.Exclusive_Unblock::total         1070                      
system.ruby.L2Cache_Controller.MT_MB.Exclusive_Unblock |       49640      6.23%      6.23% |       49742      6.25%     12.48% |       49484      6.21%     18.69% |       50078      6.29%     24.98% |       49210      6.18%     31.16% |       49165      6.17%     37.33% |       49271      6.19%     43.51% |       49711      6.24%     49.76% |       49719      6.24%     56.00% |       49251      6.18%     62.18% |       51471      6.46%     68.64% |       50235      6.31%     74.95% |       50163      6.30%     81.25% |       50254      6.31%     87.56% |       49941      6.27%     93.83% |       49162      6.17%    100.00%
system.ruby.L2Cache_Controller.MT_MB.Exclusive_Unblock::total       796497                      
system.ruby.L2Cache_Controller.MT_IIB.WB_Data |          68      3.91%      3.91% |          69      3.96%      7.87% |          98      5.63%     13.50% |          95      5.46%     18.95% |          96      5.51%     24.47% |         140      8.04%     32.51% |         138      7.93%     40.44% |         136      7.81%     48.25% |         138      7.93%     56.17% |         137      7.87%     64.04% |         131      7.52%     71.57% |         136      7.81%     79.38% |         111      6.38%     85.76% |         110      6.32%     92.07% |          68      3.91%     95.98% |          70      4.02%    100.00%
system.ruby.L2Cache_Controller.MT_IIB.WB_Data::total         1741                      
system.ruby.L2Cache_Controller.MT_IIB.Unblock |           2      9.52%      9.52% |           1      4.76%     14.29% |           0      0.00%     14.29% |           3     14.29%     28.57% |           2      9.52%     38.10% |           0      0.00%     38.10% |           2      9.52%     47.62% |           4     19.05%     66.67% |           0      0.00%     66.67% |           1      4.76%     71.43% |           1      4.76%     76.19% |           0      0.00%     76.19% |           1      4.76%     80.95% |           2      9.52%     90.48% |           2      9.52%    100.00% |           0      0.00%    100.00%
system.ruby.L2Cache_Controller.MT_IIB.Unblock::total           21                      
system.ruby.L2Cache_Controller.MT_IB.WB_Data |           2      9.52%      9.52% |           1      4.76%     14.29% |           0      0.00%     14.29% |           3     14.29%     28.57% |           2      9.52%     38.10% |           0      0.00%     38.10% |           2      9.52%     47.62% |           4     19.05%     66.67% |           0      0.00%     66.67% |           1      4.76%     71.43% |           1      4.76%     76.19% |           0      0.00%     76.19% |           1      4.76%     80.95% |           2      9.52%     90.48% |           2      9.52%    100.00% |           0      0.00%    100.00%
system.ruby.L2Cache_Controller.MT_IB.WB_Data::total           21                      
system.ruby.L2Cache_Controller.MT_SB.Unblock |          68      3.91%      3.91% |          69      3.96%      7.87% |          98      5.63%     13.50% |          95      5.46%     18.95% |          96      5.51%     24.47% |         140      8.04%     32.51% |         138      7.93%     40.44% |         136      7.81%     48.25% |         138      7.93%     56.17% |         137      7.87%     64.04% |         131      7.52%     71.57% |         136      7.81%     79.38% |         111      6.38%     85.76% |         110      6.32%     92.07% |          68      3.91%     95.98% |          70      4.02%    100.00%
system.ruby.L2Cache_Controller.MT_SB.Unblock::total         1741                      

---------- End Simulation Statistics   ----------
