
---------- Begin Simulation Statistics ----------
sim_seconds                                  0.013364                       # Number of seconds simulated
sim_ticks                                 13363542000                       # Number of ticks simulated
final_tick                                13363542000                       # Number of ticks from beginning of simulation (restored from checkpoints and never reset)
sim_freq                                 1000000000000                       # Frequency of simulated ticks
host_inst_rate                                  35605                       # Simulator instruction rate (inst/s)
host_op_rate                                    62189                       # Simulator op (including micro ops) rate (op/s)
host_tick_rate                               11247053                       # Simulator tick rate (ticks/s)
host_mem_usage                                1757668                       # Number of bytes of host memory used
host_seconds                                  1188.18                       # Real time elapsed on the host
sim_insts                                    42304658                       # Number of instructions simulated
sim_ops                                      73891267                       # Number of ops (including micro ops) simulated
system.voltage_domain.voltage                       1                       # Voltage in Volts
system.clk_domain.clock                          1000                       # Clock period in ticks
system.mem_ctrls0.pwrStateResidencyTicks::UNDEFINED  13363542000                       # Cumulative time (in ticks) in various power states
system.mem_ctrls0.bytes_read::ruby.dir_cntrl0      8568128                       # Number of bytes read from this memory
system.mem_ctrls0.bytes_read::total           8568128                       # Number of bytes read from this memory
system.mem_ctrls0.bytes_written::ruby.dir_cntrl0      1290304                       # Number of bytes written to this memory
system.mem_ctrls0.bytes_written::total        1290304                       # Number of bytes written to this memory
system.mem_ctrls0.num_reads::ruby.dir_cntrl0       133877                       # Number of read requests responded to by this memory
system.mem_ctrls0.num_reads::total             133877                       # Number of read requests responded to by this memory
system.mem_ctrls0.num_writes::ruby.dir_cntrl0        20161                       # Number of write requests responded to by this memory
system.mem_ctrls0.num_writes::total             20161                       # Number of write requests responded to by this memory
system.mem_ctrls0.bw_read::ruby.dir_cntrl0    641156963                       # Total read bandwidth from this memory (bytes/s)
system.mem_ctrls0.bw_read::total            641156963                       # Total read bandwidth from this memory (bytes/s)
system.mem_ctrls0.bw_write::ruby.dir_cntrl0     96554042                       # Write bandwidth from this memory (bytes/s)
system.mem_ctrls0.bw_write::total            96554042                       # Write bandwidth from this memory (bytes/s)
system.mem_ctrls0.bw_total::ruby.dir_cntrl0    737711005                       # Total bandwidth to/from this memory (bytes/s)
system.mem_ctrls0.bw_total::total           737711005                       # Total bandwidth to/from this memory (bytes/s)
system.mem_ctrls0.readReqs                     133877                       # Number of read requests accepted
system.mem_ctrls0.avgNetLat                      0.00                       # Average network latency to DRAM controller
system.mem_ctrls0.writeReqs                     20161                       # Number of write requests accepted
system.mem_ctrls0.readBursts                   133877                       # Number of DRAM read bursts, including those serviced by the write queue
system.mem_ctrls0.writeBursts                   20161                       # Number of DRAM write bursts, including those merged in the write queue
system.mem_ctrls0.bytesReadDRAM               8567744                       # Total number of bytes read from DRAM
system.mem_ctrls0.bytesReadWrQ                    384                       # Total number of bytes read from write queue
system.mem_ctrls0.bytesWritten                1289216                       # Total number of bytes written to DRAM
system.mem_ctrls0.bytesReadSys                8568128                       # Total read bytes from the system interface side
system.mem_ctrls0.bytesWrittenSys             1290304                       # Total written bytes from the system interface side
system.mem_ctrls0.servicedByWrQ                     6                       # Number of DRAM read bursts serviced by the write queue
system.mem_ctrls0.mergedWrBursts                    0                       # Number of DRAM write bursts merged with an existing one
system.mem_ctrls0.neitherReadNorWriteReqs            0                       # Number of requests that are neither read nor write
system.mem_ctrls0.perBankRdBursts::0             8580                       # Per bank write bursts
system.mem_ctrls0.perBankRdBursts::1             8492                       # Per bank write bursts
system.mem_ctrls0.perBankRdBursts::2             8282                       # Per bank write bursts
system.mem_ctrls0.perBankRdBursts::3             8469                       # Per bank write bursts
system.mem_ctrls0.perBankRdBursts::4             8294                       # Per bank write bursts
system.mem_ctrls0.perBankRdBursts::5             7866                       # Per bank write bursts
system.mem_ctrls0.perBankRdBursts::6             7936                       # Per bank write bursts
system.mem_ctrls0.perBankRdBursts::7             8202                       # Per bank write bursts
system.mem_ctrls0.perBankRdBursts::8             8208                       # Per bank write bursts
system.mem_ctrls0.perBankRdBursts::9             8219                       # Per bank write bursts
system.mem_ctrls0.perBankRdBursts::10            8694                       # Per bank write bursts
system.mem_ctrls0.perBankRdBursts::11            8574                       # Per bank write bursts
system.mem_ctrls0.perBankRdBursts::12            8834                       # Per bank write bursts
system.mem_ctrls0.perBankRdBursts::13            8936                       # Per bank write bursts
system.mem_ctrls0.perBankRdBursts::14            8099                       # Per bank write bursts
system.mem_ctrls0.perBankRdBursts::15            8186                       # Per bank write bursts
system.mem_ctrls0.perBankWrBursts::0             1229                       # Per bank write bursts
system.mem_ctrls0.perBankWrBursts::1             1108                       # Per bank write bursts
system.mem_ctrls0.perBankWrBursts::2             1092                       # Per bank write bursts
system.mem_ctrls0.perBankWrBursts::3             1366                       # Per bank write bursts
system.mem_ctrls0.perBankWrBursts::4             1367                       # Per bank write bursts
system.mem_ctrls0.perBankWrBursts::5             1275                       # Per bank write bursts
system.mem_ctrls0.perBankWrBursts::6             1094                       # Per bank write bursts
system.mem_ctrls0.perBankWrBursts::7             1205                       # Per bank write bursts
system.mem_ctrls0.perBankWrBursts::8             1293                       # Per bank write bursts
system.mem_ctrls0.perBankWrBursts::9             1203                       # Per bank write bursts
system.mem_ctrls0.perBankWrBursts::10            1130                       # Per bank write bursts
system.mem_ctrls0.perBankWrBursts::11            1242                       # Per bank write bursts
system.mem_ctrls0.perBankWrBursts::12            1383                       # Per bank write bursts
system.mem_ctrls0.perBankWrBursts::13            1408                       # Per bank write bursts
system.mem_ctrls0.perBankWrBursts::14            1378                       # Per bank write bursts
system.mem_ctrls0.perBankWrBursts::15            1371                       # Per bank write bursts
system.mem_ctrls0.numRdRetry                        0                       # Number of times read queue was full causing retry
system.mem_ctrls0.numWrRetry                        0                       # Number of times write queue was full causing retry
system.mem_ctrls0.totGap                  13362535500                       # Total gap between requests
system.mem_ctrls0.readPktSize::0                    0                       # Read request sizes (log2)
system.mem_ctrls0.readPktSize::1                    0                       # Read request sizes (log2)
system.mem_ctrls0.readPktSize::2                    0                       # Read request sizes (log2)
system.mem_ctrls0.readPktSize::3                    0                       # Read request sizes (log2)
system.mem_ctrls0.readPktSize::4                    0                       # Read request sizes (log2)
system.mem_ctrls0.readPktSize::5                    0                       # Read request sizes (log2)
system.mem_ctrls0.readPktSize::6               133877                       # Read request sizes (log2)
system.mem_ctrls0.writePktSize::0                   0                       # Write request sizes (log2)
system.mem_ctrls0.writePktSize::1                   0                       # Write request sizes (log2)
system.mem_ctrls0.writePktSize::2                   0                       # Write request sizes (log2)
system.mem_ctrls0.writePktSize::3                   0                       # Write request sizes (log2)
system.mem_ctrls0.writePktSize::4                   0                       # Write request sizes (log2)
system.mem_ctrls0.writePktSize::5                   0                       # Write request sizes (log2)
system.mem_ctrls0.writePktSize::6               20161                       # Write request sizes (log2)
system.mem_ctrls0.rdQLenPdf::0                  66494                       # What read queue length does an incoming req see
system.mem_ctrls0.rdQLenPdf::1                  34404                       # What read queue length does an incoming req see
system.mem_ctrls0.rdQLenPdf::2                  17124                       # What read queue length does an incoming req see
system.mem_ctrls0.rdQLenPdf::3                   8507                       # What read queue length does an incoming req see
system.mem_ctrls0.rdQLenPdf::4                   4211                       # What read queue length does an incoming req see
system.mem_ctrls0.rdQLenPdf::5                   1924                       # What read queue length does an incoming req see
system.mem_ctrls0.rdQLenPdf::6                    794                       # What read queue length does an incoming req see
system.mem_ctrls0.rdQLenPdf::7                    274                       # What read queue length does an incoming req see
system.mem_ctrls0.rdQLenPdf::8                    105                       # What read queue length does an incoming req see
system.mem_ctrls0.rdQLenPdf::9                     26                       # What read queue length does an incoming req see
system.mem_ctrls0.rdQLenPdf::10                     8                       # What read queue length does an incoming req see
system.mem_ctrls0.rdQLenPdf::11                     0                       # What read queue length does an incoming req see
system.mem_ctrls0.rdQLenPdf::12                     0                       # What read queue length does an incoming req see
system.mem_ctrls0.rdQLenPdf::13                     0                       # What read queue length does an incoming req see
system.mem_ctrls0.rdQLenPdf::14                     0                       # What read queue length does an incoming req see
system.mem_ctrls0.rdQLenPdf::15                     0                       # What read queue length does an incoming req see
system.mem_ctrls0.rdQLenPdf::16                     0                       # What read queue length does an incoming req see
system.mem_ctrls0.rdQLenPdf::17                     0                       # What read queue length does an incoming req see
system.mem_ctrls0.rdQLenPdf::18                     0                       # What read queue length does an incoming req see
system.mem_ctrls0.rdQLenPdf::19                     0                       # What read queue length does an incoming req see
system.mem_ctrls0.rdQLenPdf::20                     0                       # What read queue length does an incoming req see
system.mem_ctrls0.rdQLenPdf::21                     0                       # What read queue length does an incoming req see
system.mem_ctrls0.rdQLenPdf::22                     0                       # What read queue length does an incoming req see
system.mem_ctrls0.rdQLenPdf::23                     0                       # What read queue length does an incoming req see
system.mem_ctrls0.rdQLenPdf::24                     0                       # What read queue length does an incoming req see
system.mem_ctrls0.rdQLenPdf::25                     0                       # What read queue length does an incoming req see
system.mem_ctrls0.rdQLenPdf::26                     0                       # What read queue length does an incoming req see
system.mem_ctrls0.rdQLenPdf::27                     0                       # What read queue length does an incoming req see
system.mem_ctrls0.rdQLenPdf::28                     0                       # What read queue length does an incoming req see
system.mem_ctrls0.rdQLenPdf::29                     0                       # What read queue length does an incoming req see
system.mem_ctrls0.rdQLenPdf::30                     0                       # What read queue length does an incoming req see
system.mem_ctrls0.rdQLenPdf::31                     0                       # What read queue length does an incoming req see
system.mem_ctrls0.wrQLenPdf::0                      1                       # What write queue length does an incoming req see
system.mem_ctrls0.wrQLenPdf::1                      1                       # What write queue length does an incoming req see
system.mem_ctrls0.wrQLenPdf::2                      1                       # What write queue length does an incoming req see
system.mem_ctrls0.wrQLenPdf::3                      1                       # What write queue length does an incoming req see
system.mem_ctrls0.wrQLenPdf::4                      1                       # What write queue length does an incoming req see
system.mem_ctrls0.wrQLenPdf::5                      1                       # What write queue length does an incoming req see
system.mem_ctrls0.wrQLenPdf::6                      1                       # What write queue length does an incoming req see
system.mem_ctrls0.wrQLenPdf::7                      1                       # What write queue length does an incoming req see
system.mem_ctrls0.wrQLenPdf::8                      1                       # What write queue length does an incoming req see
system.mem_ctrls0.wrQLenPdf::9                      1                       # What write queue length does an incoming req see
system.mem_ctrls0.wrQLenPdf::10                     1                       # What write queue length does an incoming req see
system.mem_ctrls0.wrQLenPdf::11                     1                       # What write queue length does an incoming req see
system.mem_ctrls0.wrQLenPdf::12                     1                       # What write queue length does an incoming req see
system.mem_ctrls0.wrQLenPdf::13                     1                       # What write queue length does an incoming req see
system.mem_ctrls0.wrQLenPdf::14                     1                       # What write queue length does an incoming req see
system.mem_ctrls0.wrQLenPdf::15                   449                       # What write queue length does an incoming req see
system.mem_ctrls0.wrQLenPdf::16                   491                       # What write queue length does an incoming req see
system.mem_ctrls0.wrQLenPdf::17                   886                       # What write queue length does an incoming req see
system.mem_ctrls0.wrQLenPdf::18                  1160                       # What write queue length does an incoming req see
system.mem_ctrls0.wrQLenPdf::19                  1214                       # What write queue length does an incoming req see
system.mem_ctrls0.wrQLenPdf::20                  1223                       # What write queue length does an incoming req see
system.mem_ctrls0.wrQLenPdf::21                  1228                       # What write queue length does an incoming req see
system.mem_ctrls0.wrQLenPdf::22                  1235                       # What write queue length does an incoming req see
system.mem_ctrls0.wrQLenPdf::23                  1229                       # What write queue length does an incoming req see
system.mem_ctrls0.wrQLenPdf::24                  1227                       # What write queue length does an incoming req see
system.mem_ctrls0.wrQLenPdf::25                  1232                       # What write queue length does an incoming req see
system.mem_ctrls0.wrQLenPdf::26                  1227                       # What write queue length does an incoming req see
system.mem_ctrls0.wrQLenPdf::27                  1230                       # What write queue length does an incoming req see
system.mem_ctrls0.wrQLenPdf::28                  1233                       # What write queue length does an incoming req see
system.mem_ctrls0.wrQLenPdf::29                  1229                       # What write queue length does an incoming req see
system.mem_ctrls0.wrQLenPdf::30                  1218                       # What write queue length does an incoming req see
system.mem_ctrls0.wrQLenPdf::31                  1205                       # What write queue length does an incoming req see
system.mem_ctrls0.wrQLenPdf::32                  1198                       # What write queue length does an incoming req see
system.mem_ctrls0.wrQLenPdf::33                    14                       # What write queue length does an incoming req see
system.mem_ctrls0.wrQLenPdf::34                     5                       # What write queue length does an incoming req see
system.mem_ctrls0.wrQLenPdf::35                     5                       # What write queue length does an incoming req see
system.mem_ctrls0.wrQLenPdf::36                     2                       # What write queue length does an incoming req see
system.mem_ctrls0.wrQLenPdf::37                     2                       # What write queue length does an incoming req see
system.mem_ctrls0.wrQLenPdf::38                     2                       # What write queue length does an incoming req see
system.mem_ctrls0.wrQLenPdf::39                     2                       # What write queue length does an incoming req see
system.mem_ctrls0.wrQLenPdf::40                     0                       # What write queue length does an incoming req see
system.mem_ctrls0.wrQLenPdf::41                     0                       # What write queue length does an incoming req see
system.mem_ctrls0.wrQLenPdf::42                     0                       # What write queue length does an incoming req see
system.mem_ctrls0.wrQLenPdf::43                     0                       # What write queue length does an incoming req see
system.mem_ctrls0.wrQLenPdf::44                     0                       # What write queue length does an incoming req see
system.mem_ctrls0.wrQLenPdf::45                     0                       # What write queue length does an incoming req see
system.mem_ctrls0.wrQLenPdf::46                     0                       # What write queue length does an incoming req see
system.mem_ctrls0.wrQLenPdf::47                     0                       # What write queue length does an incoming req see
system.mem_ctrls0.wrQLenPdf::48                     0                       # What write queue length does an incoming req see
system.mem_ctrls0.wrQLenPdf::49                     0                       # What write queue length does an incoming req see
system.mem_ctrls0.wrQLenPdf::50                     0                       # What write queue length does an incoming req see
system.mem_ctrls0.wrQLenPdf::51                     0                       # What write queue length does an incoming req see
system.mem_ctrls0.wrQLenPdf::52                     0                       # What write queue length does an incoming req see
system.mem_ctrls0.wrQLenPdf::53                     0                       # What write queue length does an incoming req see
system.mem_ctrls0.wrQLenPdf::54                     0                       # What write queue length does an incoming req see
system.mem_ctrls0.wrQLenPdf::55                     0                       # What write queue length does an incoming req see
system.mem_ctrls0.wrQLenPdf::56                     0                       # What write queue length does an incoming req see
system.mem_ctrls0.wrQLenPdf::57                     0                       # What write queue length does an incoming req see
system.mem_ctrls0.wrQLenPdf::58                     0                       # What write queue length does an incoming req see
system.mem_ctrls0.wrQLenPdf::59                     0                       # What write queue length does an incoming req see
system.mem_ctrls0.wrQLenPdf::60                     0                       # What write queue length does an incoming req see
system.mem_ctrls0.wrQLenPdf::61                     0                       # What write queue length does an incoming req see
system.mem_ctrls0.wrQLenPdf::62                     0                       # What write queue length does an incoming req see
system.mem_ctrls0.wrQLenPdf::63                     0                       # What write queue length does an incoming req see
system.mem_ctrls0.bytesPerActivate::samples        85558                       # Bytes accessed per row activation
system.mem_ctrls0.bytesPerActivate::mean   115.199701                       # Bytes accessed per row activation
system.mem_ctrls0.bytesPerActivate::gmean    88.507323                       # Bytes accessed per row activation
system.mem_ctrls0.bytesPerActivate::stdev   129.072222                       # Bytes accessed per row activation
system.mem_ctrls0.bytesPerActivate::0-127        61001     71.30%     71.30% # Bytes accessed per row activation
system.mem_ctrls0.bytesPerActivate::128-255        16295     19.05%     90.34% # Bytes accessed per row activation
system.mem_ctrls0.bytesPerActivate::256-383         3455      4.04%     94.38% # Bytes accessed per row activation
system.mem_ctrls0.bytesPerActivate::384-511         1830      2.14%     96.52% # Bytes accessed per row activation
system.mem_ctrls0.bytesPerActivate::512-639         1136      1.33%     97.85% # Bytes accessed per row activation
system.mem_ctrls0.bytesPerActivate::640-767         1230      1.44%     99.29% # Bytes accessed per row activation
system.mem_ctrls0.bytesPerActivate::768-895          123      0.14%     99.43% # Bytes accessed per row activation
system.mem_ctrls0.bytesPerActivate::896-1023           83      0.10%     99.53% # Bytes accessed per row activation
system.mem_ctrls0.bytesPerActivate::1024-1151          405      0.47%    100.00% # Bytes accessed per row activation
system.mem_ctrls0.bytesPerActivate::total        85558                       # Bytes accessed per row activation
system.mem_ctrls0.rdPerTurnAround::samples         1194                       # Reads before turning the bus around for writes
system.mem_ctrls0.rdPerTurnAround::mean    112.116415                       # Reads before turning the bus around for writes
system.mem_ctrls0.rdPerTurnAround::gmean    32.690499                       # Reads before turning the bus around for writes
system.mem_ctrls0.rdPerTurnAround::stdev  1969.930152                       # Reads before turning the bus around for writes
system.mem_ctrls0.rdPerTurnAround::0-4095         1193     99.92%     99.92% # Reads before turning the bus around for writes
system.mem_ctrls0.rdPerTurnAround::65536-69631            1      0.08%    100.00% # Reads before turning the bus around for writes
system.mem_ctrls0.rdPerTurnAround::total         1194                       # Reads before turning the bus around for writes
system.mem_ctrls0.wrPerTurnAround::samples         1194                       # Writes before turning the bus around for reads
system.mem_ctrls0.wrPerTurnAround::mean     16.871022                       # Writes before turning the bus around for reads
system.mem_ctrls0.wrPerTurnAround::gmean    16.837058                       # Writes before turning the bus around for reads
system.mem_ctrls0.wrPerTurnAround::stdev     1.087973                       # Writes before turning the bus around for reads
system.mem_ctrls0.wrPerTurnAround::16             691     57.87%     57.87% # Writes before turning the bus around for reads
system.mem_ctrls0.wrPerTurnAround::17              43      3.60%     61.47% # Writes before turning the bus around for reads
system.mem_ctrls0.wrPerTurnAround::18             396     33.17%     94.64% # Writes before turning the bus around for reads
system.mem_ctrls0.wrPerTurnAround::19              57      4.77%     99.41% # Writes before turning the bus around for reads
system.mem_ctrls0.wrPerTurnAround::20               4      0.34%     99.75% # Writes before turning the bus around for reads
system.mem_ctrls0.wrPerTurnAround::21               2      0.17%     99.92% # Writes before turning the bus around for reads
system.mem_ctrls0.wrPerTurnAround::24               1      0.08%    100.00% # Writes before turning the bus around for reads
system.mem_ctrls0.wrPerTurnAround::total         1194                       # Writes before turning the bus around for reads
system.mem_ctrls0.totQLat                  3774970250                       # Total ticks spent queuing
system.mem_ctrls0.totMemAccLat             6285051500                       # Total ticks spent from burst creation until serviced by the DRAM
system.mem_ctrls0.totBusLat                 669355000                       # Total ticks spent in databus transfers
system.mem_ctrls0.avgQLat                    28198.57                       # Average queueing delay per DRAM burst
system.mem_ctrls0.avgBusLat                   5000.00                       # Average bus latency per DRAM burst
system.mem_ctrls0.avgMemAccLat               46948.57                       # Average memory access latency per DRAM burst
system.mem_ctrls0.avgRdBW                      641.13                       # Average DRAM read bandwidth in MiByte/s
system.mem_ctrls0.avgWrBW                       96.47                       # Average achieved write bandwidth in MiByte/s
system.mem_ctrls0.avgRdBWSys                   641.16                       # Average system read bandwidth in MiByte/s
system.mem_ctrls0.avgWrBWSys                    96.55                       # Average system write bandwidth in MiByte/s
system.mem_ctrls0.peakBW                     12800.00                       # Theoretical peak bandwidth in MiByte/s
system.mem_ctrls0.busUtil                        5.76                       # Data bus utilization in percentage
system.mem_ctrls0.busUtilRead                    5.01                       # Data bus utilization in percentage for reads
system.mem_ctrls0.busUtilWrite                   0.75                       # Data bus utilization in percentage for writes
system.mem_ctrls0.avgRdQLen                      1.53                       # Average read queue length when enqueuing
system.mem_ctrls0.avgWrQLen                     10.65                       # Average write queue length when enqueuing
system.mem_ctrls0.readRowHits                   62339                       # Number of row buffer hits during reads
system.mem_ctrls0.writeRowHits                   6108                       # Number of row buffer hits during writes
system.mem_ctrls0.readRowHitRate                46.57                       # Row buffer hit rate for reads
system.mem_ctrls0.writeRowHitRate               30.30                       # Row buffer hit rate for writes
system.mem_ctrls0.avgGap                     86748.31                       # Average gap between requests
system.mem_ctrls0.pageHitRate                   44.44                       # Row buffer hit rate, read and write combined
system.mem_ctrls0_0.actEnergy               300129900                       # Energy for activate commands per rank (pJ)
system.mem_ctrls0_0.preEnergy               159511440                       # Energy for precharge commands per rank (pJ)
system.mem_ctrls0_0.readEnergy              472103940                       # Energy for read commands per rank (pJ)
system.mem_ctrls0_0.writeEnergy              50821920                       # Energy for write commands per rank (pJ)
system.mem_ctrls0_0.refreshEnergy        1059639360.000000                       # Energy for refresh commands per rank (pJ)
system.mem_ctrls0_0.actBackEnergy          1407309480                       # Energy for active background per rank (pJ)
system.mem_ctrls0_0.preBackEnergy            25347360                       # Energy for precharge background per rank (pJ)
system.mem_ctrls0_0.actPowerDownEnergy     4323216300                       # Energy for active power-down per rank (pJ)
system.mem_ctrls0_0.prePowerDownEnergy      260444640                       # Energy for precharge power-down per rank (pJ)
system.mem_ctrls0_0.selfRefreshEnergy        21429045                       # Energy for self refresh per rank (pJ)
system.mem_ctrls0_0.totalEnergy            8080029075                       # Total energy per rank (pJ)
system.mem_ctrls0_0.averagePower           604.632273                       # Core power per rank (mW)
system.mem_ctrls0_0.totalIdleTime         10211597250                       # Total Idle time Per DRAM Rank
system.mem_ctrls0_0.memoryStateTime::IDLE     13845000                       # Time in different power states
system.mem_ctrls0_0.memoryStateTime::REF    448348000                       # Time in different power states
system.mem_ctrls0_0.memoryStateTime::SREF     52179250                       # Time in different power states
system.mem_ctrls0_0.memoryStateTime::PRE_PDN    678005000                       # Time in different power states
system.mem_ctrls0_0.memoryStateTime::ACT   2689751750                       # Time in different power states
system.mem_ctrls0_0.memoryStateTime::ACT_PDN   9481413000                       # Time in different power states
system.mem_ctrls0_1.actEnergy               310825620                       # Energy for activate commands per rank (pJ)
system.mem_ctrls0_1.preEnergy               165181170                       # Energy for precharge commands per rank (pJ)
system.mem_ctrls0_1.readEnergy              483735000                       # Energy for read commands per rank (pJ)
system.mem_ctrls0_1.writeEnergy              54329760                       # Energy for write commands per rank (pJ)
system.mem_ctrls0_1.refreshEnergy        1061483280.000000                       # Energy for refresh commands per rank (pJ)
system.mem_ctrls0_1.actBackEnergy          1407337980                       # Energy for active background per rank (pJ)
system.mem_ctrls0_1.preBackEnergy            26896800                       # Energy for precharge background per rank (pJ)
system.mem_ctrls0_1.actPowerDownEnergy     4309990020                       # Energy for active power-down per rank (pJ)
system.mem_ctrls0_1.prePowerDownEnergy      255017760                       # Energy for precharge power-down per rank (pJ)
system.mem_ctrls0_1.selfRefreshEnergy        35768805                       # Energy for self refresh per rank (pJ)
system.mem_ctrls0_1.totalEnergy            8110678065                       # Total energy per rank (pJ)
system.mem_ctrls0_1.averagePower           606.925751                       # Core power per rank (mW)
system.mem_ctrls0_1.totalIdleTime         10206633250                       # Total Idle time Per DRAM Rank
system.mem_ctrls0_1.memoryStateTime::IDLE     16153250                       # Time in different power states
system.mem_ctrls0_1.memoryStateTime::REF    449170000                       # Time in different power states
system.mem_ctrls0_1.memoryStateTime::SREF     91144750                       # Time in different power states
system.mem_ctrls0_1.memoryStateTime::PRE_PDN    663898500                       # Time in different power states
system.mem_ctrls0_1.memoryStateTime::ACT   2690698750                       # Time in different power states
system.mem_ctrls0_1.memoryStateTime::ACT_PDN   9452476750                       # Time in different power states
system.mem_ctrls1.pwrStateResidencyTicks::UNDEFINED  13363542000                       # Cumulative time (in ticks) in various power states
system.mem_ctrls1.bytes_read::ruby.dir_cntrl1      8645632                       # Number of bytes read from this memory
system.mem_ctrls1.bytes_read::total           8645632                       # Number of bytes read from this memory
system.mem_ctrls1.bytes_written::ruby.dir_cntrl1      1314176                       # Number of bytes written to this memory
system.mem_ctrls1.bytes_written::total        1314176                       # Number of bytes written to this memory
system.mem_ctrls1.num_reads::ruby.dir_cntrl1       135088                       # Number of read requests responded to by this memory
system.mem_ctrls1.num_reads::total             135088                       # Number of read requests responded to by this memory
system.mem_ctrls1.num_writes::ruby.dir_cntrl1        20534                       # Number of write requests responded to by this memory
system.mem_ctrls1.num_writes::total             20534                       # Number of write requests responded to by this memory
system.mem_ctrls1.bw_read::ruby.dir_cntrl1    646956623                       # Total read bandwidth from this memory (bytes/s)
system.mem_ctrls1.bw_read::total            646956623                       # Total read bandwidth from this memory (bytes/s)
system.mem_ctrls1.bw_write::ruby.dir_cntrl1     98340395                       # Write bandwidth from this memory (bytes/s)
system.mem_ctrls1.bw_write::total            98340395                       # Write bandwidth from this memory (bytes/s)
system.mem_ctrls1.bw_total::ruby.dir_cntrl1    745297018                       # Total bandwidth to/from this memory (bytes/s)
system.mem_ctrls1.bw_total::total           745297018                       # Total bandwidth to/from this memory (bytes/s)
system.mem_ctrls1.readReqs                     135088                       # Number of read requests accepted
system.mem_ctrls1.avgNetLat                      0.00                       # Average network latency to DRAM controller
system.mem_ctrls1.writeReqs                     20534                       # Number of write requests accepted
system.mem_ctrls1.readBursts                   135088                       # Number of DRAM read bursts, including those serviced by the write queue
system.mem_ctrls1.writeBursts                   20534                       # Number of DRAM write bursts, including those merged in the write queue
system.mem_ctrls1.bytesReadDRAM               8644480                       # Total number of bytes read from DRAM
system.mem_ctrls1.bytesReadWrQ                   1152                       # Total number of bytes read from write queue
system.mem_ctrls1.bytesWritten                1312576                       # Total number of bytes written to DRAM
system.mem_ctrls1.bytesReadSys                8645632                       # Total read bytes from the system interface side
system.mem_ctrls1.bytesWrittenSys             1314176                       # Total written bytes from the system interface side
system.mem_ctrls1.servicedByWrQ                    18                       # Number of DRAM read bursts serviced by the write queue
system.mem_ctrls1.mergedWrBursts                    0                       # Number of DRAM write bursts merged with an existing one
system.mem_ctrls1.neitherReadNorWriteReqs            0                       # Number of requests that are neither read nor write
system.mem_ctrls1.perBankRdBursts::0             8621                       # Per bank write bursts
system.mem_ctrls1.perBankRdBursts::1             8545                       # Per bank write bursts
system.mem_ctrls1.perBankRdBursts::2             8396                       # Per bank write bursts
system.mem_ctrls1.perBankRdBursts::3             8505                       # Per bank write bursts
system.mem_ctrls1.perBankRdBursts::4             8387                       # Per bank write bursts
system.mem_ctrls1.perBankRdBursts::5             7975                       # Per bank write bursts
system.mem_ctrls1.perBankRdBursts::6             8014                       # Per bank write bursts
system.mem_ctrls1.perBankRdBursts::7             8243                       # Per bank write bursts
system.mem_ctrls1.perBankRdBursts::8             8250                       # Per bank write bursts
system.mem_ctrls1.perBankRdBursts::9             8318                       # Per bank write bursts
system.mem_ctrls1.perBankRdBursts::10            8763                       # Per bank write bursts
system.mem_ctrls1.perBankRdBursts::11            8681                       # Per bank write bursts
system.mem_ctrls1.perBankRdBursts::12            8891                       # Per bank write bursts
system.mem_ctrls1.perBankRdBursts::13            9024                       # Per bank write bursts
system.mem_ctrls1.perBankRdBursts::14            8214                       # Per bank write bursts
system.mem_ctrls1.perBankRdBursts::15            8243                       # Per bank write bursts
system.mem_ctrls1.perBankWrBursts::0             1267                       # Per bank write bursts
system.mem_ctrls1.perBankWrBursts::1             1139                       # Per bank write bursts
system.mem_ctrls1.perBankWrBursts::2             1100                       # Per bank write bursts
system.mem_ctrls1.perBankWrBursts::3             1386                       # Per bank write bursts
system.mem_ctrls1.perBankWrBursts::4             1403                       # Per bank write bursts
system.mem_ctrls1.perBankWrBursts::5             1287                       # Per bank write bursts
system.mem_ctrls1.perBankWrBursts::6             1108                       # Per bank write bursts
system.mem_ctrls1.perBankWrBursts::7             1246                       # Per bank write bursts
system.mem_ctrls1.perBankWrBursts::8             1316                       # Per bank write bursts
system.mem_ctrls1.perBankWrBursts::9             1231                       # Per bank write bursts
system.mem_ctrls1.perBankWrBursts::10            1132                       # Per bank write bursts
system.mem_ctrls1.perBankWrBursts::11            1276                       # Per bank write bursts
system.mem_ctrls1.perBankWrBursts::12            1377                       # Per bank write bursts
system.mem_ctrls1.perBankWrBursts::13            1438                       # Per bank write bursts
system.mem_ctrls1.perBankWrBursts::14            1414                       # Per bank write bursts
system.mem_ctrls1.perBankWrBursts::15            1389                       # Per bank write bursts
system.mem_ctrls1.numRdRetry                        0                       # Number of times read queue was full causing retry
system.mem_ctrls1.numWrRetry                        0                       # Number of times write queue was full causing retry
system.mem_ctrls1.totGap                  13363148000                       # Total gap between requests
system.mem_ctrls1.readPktSize::0                    0                       # Read request sizes (log2)
system.mem_ctrls1.readPktSize::1                    0                       # Read request sizes (log2)
system.mem_ctrls1.readPktSize::2                    0                       # Read request sizes (log2)
system.mem_ctrls1.readPktSize::3                    0                       # Read request sizes (log2)
system.mem_ctrls1.readPktSize::4                    0                       # Read request sizes (log2)
system.mem_ctrls1.readPktSize::5                    0                       # Read request sizes (log2)
system.mem_ctrls1.readPktSize::6               135088                       # Read request sizes (log2)
system.mem_ctrls1.writePktSize::0                   0                       # Write request sizes (log2)
system.mem_ctrls1.writePktSize::1                   0                       # Write request sizes (log2)
system.mem_ctrls1.writePktSize::2                   0                       # Write request sizes (log2)
system.mem_ctrls1.writePktSize::3                   0                       # Write request sizes (log2)
system.mem_ctrls1.writePktSize::4                   0                       # Write request sizes (log2)
system.mem_ctrls1.writePktSize::5                   0                       # Write request sizes (log2)
system.mem_ctrls1.writePktSize::6               20534                       # Write request sizes (log2)
system.mem_ctrls1.rdQLenPdf::0                  66392                       # What read queue length does an incoming req see
system.mem_ctrls1.rdQLenPdf::1                  34834                       # What read queue length does an incoming req see
system.mem_ctrls1.rdQLenPdf::2                  17516                       # What read queue length does an incoming req see
system.mem_ctrls1.rdQLenPdf::3                   8857                       # What read queue length does an incoming req see
system.mem_ctrls1.rdQLenPdf::4                   4305                       # What read queue length does an incoming req see
system.mem_ctrls1.rdQLenPdf::5                   1925                       # What read queue length does an incoming req see
system.mem_ctrls1.rdQLenPdf::6                    788                       # What read queue length does an incoming req see
system.mem_ctrls1.rdQLenPdf::7                    301                       # What read queue length does an incoming req see
system.mem_ctrls1.rdQLenPdf::8                    118                       # What read queue length does an incoming req see
system.mem_ctrls1.rdQLenPdf::9                     30                       # What read queue length does an incoming req see
system.mem_ctrls1.rdQLenPdf::10                     4                       # What read queue length does an incoming req see
system.mem_ctrls1.rdQLenPdf::11                     0                       # What read queue length does an incoming req see
system.mem_ctrls1.rdQLenPdf::12                     0                       # What read queue length does an incoming req see
system.mem_ctrls1.rdQLenPdf::13                     0                       # What read queue length does an incoming req see
system.mem_ctrls1.rdQLenPdf::14                     0                       # What read queue length does an incoming req see
system.mem_ctrls1.rdQLenPdf::15                     0                       # What read queue length does an incoming req see
system.mem_ctrls1.rdQLenPdf::16                     0                       # What read queue length does an incoming req see
system.mem_ctrls1.rdQLenPdf::17                     0                       # What read queue length does an incoming req see
system.mem_ctrls1.rdQLenPdf::18                     0                       # What read queue length does an incoming req see
system.mem_ctrls1.rdQLenPdf::19                     0                       # What read queue length does an incoming req see
system.mem_ctrls1.rdQLenPdf::20                     0                       # What read queue length does an incoming req see
system.mem_ctrls1.rdQLenPdf::21                     0                       # What read queue length does an incoming req see
system.mem_ctrls1.rdQLenPdf::22                     0                       # What read queue length does an incoming req see
system.mem_ctrls1.rdQLenPdf::23                     0                       # What read queue length does an incoming req see
system.mem_ctrls1.rdQLenPdf::24                     0                       # What read queue length does an incoming req see
system.mem_ctrls1.rdQLenPdf::25                     0                       # What read queue length does an incoming req see
system.mem_ctrls1.rdQLenPdf::26                     0                       # What read queue length does an incoming req see
system.mem_ctrls1.rdQLenPdf::27                     0                       # What read queue length does an incoming req see
system.mem_ctrls1.rdQLenPdf::28                     0                       # What read queue length does an incoming req see
system.mem_ctrls1.rdQLenPdf::29                     0                       # What read queue length does an incoming req see
system.mem_ctrls1.rdQLenPdf::30                     0                       # What read queue length does an incoming req see
system.mem_ctrls1.rdQLenPdf::31                     0                       # What read queue length does an incoming req see
system.mem_ctrls1.wrQLenPdf::0                      1                       # What write queue length does an incoming req see
system.mem_ctrls1.wrQLenPdf::1                      1                       # What write queue length does an incoming req see
system.mem_ctrls1.wrQLenPdf::2                      1                       # What write queue length does an incoming req see
system.mem_ctrls1.wrQLenPdf::3                      1                       # What write queue length does an incoming req see
system.mem_ctrls1.wrQLenPdf::4                      1                       # What write queue length does an incoming req see
system.mem_ctrls1.wrQLenPdf::5                      1                       # What write queue length does an incoming req see
system.mem_ctrls1.wrQLenPdf::6                      1                       # What write queue length does an incoming req see
system.mem_ctrls1.wrQLenPdf::7                      1                       # What write queue length does an incoming req see
system.mem_ctrls1.wrQLenPdf::8                      1                       # What write queue length does an incoming req see
system.mem_ctrls1.wrQLenPdf::9                      1                       # What write queue length does an incoming req see
system.mem_ctrls1.wrQLenPdf::10                     1                       # What write queue length does an incoming req see
system.mem_ctrls1.wrQLenPdf::11                     1                       # What write queue length does an incoming req see
system.mem_ctrls1.wrQLenPdf::12                     1                       # What write queue length does an incoming req see
system.mem_ctrls1.wrQLenPdf::13                     1                       # What write queue length does an incoming req see
system.mem_ctrls1.wrQLenPdf::14                     1                       # What write queue length does an incoming req see
system.mem_ctrls1.wrQLenPdf::15                   467                       # What write queue length does an incoming req see
system.mem_ctrls1.wrQLenPdf::16                   518                       # What write queue length does an incoming req see
system.mem_ctrls1.wrQLenPdf::17                   915                       # What write queue length does an incoming req see
system.mem_ctrls1.wrQLenPdf::18                  1182                       # What write queue length does an incoming req see
system.mem_ctrls1.wrQLenPdf::19                  1236                       # What write queue length does an incoming req see
system.mem_ctrls1.wrQLenPdf::20                  1251                       # What write queue length does an incoming req see
system.mem_ctrls1.wrQLenPdf::21                  1245                       # What write queue length does an incoming req see
system.mem_ctrls1.wrQLenPdf::22                  1251                       # What write queue length does an incoming req see
system.mem_ctrls1.wrQLenPdf::23                  1251                       # What write queue length does an incoming req see
system.mem_ctrls1.wrQLenPdf::24                  1253                       # What write queue length does an incoming req see
system.mem_ctrls1.wrQLenPdf::25                  1257                       # What write queue length does an incoming req see
system.mem_ctrls1.wrQLenPdf::26                  1249                       # What write queue length does an incoming req see
system.mem_ctrls1.wrQLenPdf::27                  1253                       # What write queue length does an incoming req see
system.mem_ctrls1.wrQLenPdf::28                  1259                       # What write queue length does an incoming req see
system.mem_ctrls1.wrQLenPdf::29                  1246                       # What write queue length does an incoming req see
system.mem_ctrls1.wrQLenPdf::30                  1231                       # What write queue length does an incoming req see
system.mem_ctrls1.wrQLenPdf::31                  1218                       # What write queue length does an incoming req see
system.mem_ctrls1.wrQLenPdf::32                  1219                       # What write queue length does an incoming req see
system.mem_ctrls1.wrQLenPdf::33                    13                       # What write queue length does an incoming req see
system.mem_ctrls1.wrQLenPdf::34                     3                       # What write queue length does an incoming req see
system.mem_ctrls1.wrQLenPdf::35                     1                       # What write queue length does an incoming req see
system.mem_ctrls1.wrQLenPdf::36                     1                       # What write queue length does an incoming req see
system.mem_ctrls1.wrQLenPdf::37                     0                       # What write queue length does an incoming req see
system.mem_ctrls1.wrQLenPdf::38                     0                       # What write queue length does an incoming req see
system.mem_ctrls1.wrQLenPdf::39                     0                       # What write queue length does an incoming req see
system.mem_ctrls1.wrQLenPdf::40                     0                       # What write queue length does an incoming req see
system.mem_ctrls1.wrQLenPdf::41                     0                       # What write queue length does an incoming req see
system.mem_ctrls1.wrQLenPdf::42                     0                       # What write queue length does an incoming req see
system.mem_ctrls1.wrQLenPdf::43                     0                       # What write queue length does an incoming req see
system.mem_ctrls1.wrQLenPdf::44                     0                       # What write queue length does an incoming req see
system.mem_ctrls1.wrQLenPdf::45                     0                       # What write queue length does an incoming req see
system.mem_ctrls1.wrQLenPdf::46                     0                       # What write queue length does an incoming req see
system.mem_ctrls1.wrQLenPdf::47                     0                       # What write queue length does an incoming req see
system.mem_ctrls1.wrQLenPdf::48                     0                       # What write queue length does an incoming req see
system.mem_ctrls1.wrQLenPdf::49                     0                       # What write queue length does an incoming req see
system.mem_ctrls1.wrQLenPdf::50                     0                       # What write queue length does an incoming req see
system.mem_ctrls1.wrQLenPdf::51                     0                       # What write queue length does an incoming req see
system.mem_ctrls1.wrQLenPdf::52                     0                       # What write queue length does an incoming req see
system.mem_ctrls1.wrQLenPdf::53                     0                       # What write queue length does an incoming req see
system.mem_ctrls1.wrQLenPdf::54                     0                       # What write queue length does an incoming req see
system.mem_ctrls1.wrQLenPdf::55                     0                       # What write queue length does an incoming req see
system.mem_ctrls1.wrQLenPdf::56                     0                       # What write queue length does an incoming req see
system.mem_ctrls1.wrQLenPdf::57                     0                       # What write queue length does an incoming req see
system.mem_ctrls1.wrQLenPdf::58                     0                       # What write queue length does an incoming req see
system.mem_ctrls1.wrQLenPdf::59                     0                       # What write queue length does an incoming req see
system.mem_ctrls1.wrQLenPdf::60                     0                       # What write queue length does an incoming req see
system.mem_ctrls1.wrQLenPdf::61                     0                       # What write queue length does an incoming req see
system.mem_ctrls1.wrQLenPdf::62                     0                       # What write queue length does an incoming req see
system.mem_ctrls1.wrQLenPdf::63                     0                       # What write queue length does an incoming req see
system.mem_ctrls1.bytesPerActivate::samples        87330                       # Bytes accessed per row activation
system.mem_ctrls1.bytesPerActivate::mean   114.009848                       # Bytes accessed per row activation
system.mem_ctrls1.bytesPerActivate::gmean    88.098228                       # Bytes accessed per row activation
system.mem_ctrls1.bytesPerActivate::stdev   126.313014                       # Bytes accessed per row activation
system.mem_ctrls1.bytesPerActivate::0-127        62479     71.54%     71.54% # Bytes accessed per row activation
system.mem_ctrls1.bytesPerActivate::128-255        16648     19.06%     90.61% # Bytes accessed per row activation
system.mem_ctrls1.bytesPerActivate::256-383         3424      3.92%     94.53% # Bytes accessed per row activation
system.mem_ctrls1.bytesPerActivate::384-511         1846      2.11%     96.64% # Bytes accessed per row activation
system.mem_ctrls1.bytesPerActivate::512-639         1185      1.36%     98.00% # Bytes accessed per row activation
system.mem_ctrls1.bytesPerActivate::640-767         1157      1.32%     99.32% # Bytes accessed per row activation
system.mem_ctrls1.bytesPerActivate::768-895          131      0.15%     99.47% # Bytes accessed per row activation
system.mem_ctrls1.bytesPerActivate::896-1023          101      0.12%     99.59% # Bytes accessed per row activation
system.mem_ctrls1.bytesPerActivate::1024-1151          359      0.41%    100.00% # Bytes accessed per row activation
system.mem_ctrls1.bytesPerActivate::total        87330                       # Bytes accessed per row activation
system.mem_ctrls1.rdPerTurnAround::samples         1213                       # Reads before turning the bus around for writes
system.mem_ctrls1.rdPerTurnAround::mean    111.341303                       # Reads before turning the bus around for writes
system.mem_ctrls1.rdPerTurnAround::gmean    32.240403                       # Reads before turning the bus around for writes
system.mem_ctrls1.rdPerTurnAround::stdev  1992.977357                       # Reads before turning the bus around for writes
system.mem_ctrls1.rdPerTurnAround::0-4095         1212     99.92%     99.92% # Reads before turning the bus around for writes
system.mem_ctrls1.rdPerTurnAround::65536-69631            1      0.08%    100.00% # Reads before turning the bus around for writes
system.mem_ctrls1.rdPerTurnAround::total         1213                       # Reads before turning the bus around for writes
system.mem_ctrls1.wrPerTurnAround::samples         1213                       # Writes before turning the bus around for reads
system.mem_ctrls1.wrPerTurnAround::mean     16.907667                       # Writes before turning the bus around for reads
system.mem_ctrls1.wrPerTurnAround::gmean    16.872480                       # Writes before turning the bus around for reads
system.mem_ctrls1.wrPerTurnAround::stdev     1.105663                       # Writes before turning the bus around for reads
system.mem_ctrls1.wrPerTurnAround::16             690     56.88%     56.88% # Writes before turning the bus around for reads
system.mem_ctrls1.wrPerTurnAround::17              41      3.38%     60.26% # Writes before turning the bus around for reads
system.mem_ctrls1.wrPerTurnAround::18             398     32.81%     93.08% # Writes before turning the bus around for reads
system.mem_ctrls1.wrPerTurnAround::19              75      6.18%     99.26% # Writes before turning the bus around for reads
system.mem_ctrls1.wrPerTurnAround::20               7      0.58%     99.84% # Writes before turning the bus around for reads
system.mem_ctrls1.wrPerTurnAround::21               1      0.08%     99.92% # Writes before turning the bus around for reads
system.mem_ctrls1.wrPerTurnAround::22               1      0.08%    100.00% # Writes before turning the bus around for reads
system.mem_ctrls1.wrPerTurnAround::total         1213                       # Writes before turning the bus around for reads
system.mem_ctrls1.totQLat                  3801531750                       # Total ticks spent queuing
system.mem_ctrls1.totMemAccLat             6334094250                       # Total ticks spent from burst creation until serviced by the DRAM
system.mem_ctrls1.totBusLat                 675350000                       # Total ticks spent in databus transfers
system.mem_ctrls1.avgQLat                    28144.90                       # Average queueing delay per DRAM burst
system.mem_ctrls1.avgBusLat                   5000.00                       # Average bus latency per DRAM burst
system.mem_ctrls1.avgMemAccLat               46894.90                       # Average memory access latency per DRAM burst
system.mem_ctrls1.avgRdBW                      646.87                       # Average DRAM read bandwidth in MiByte/s
system.mem_ctrls1.avgWrBW                       98.22                       # Average achieved write bandwidth in MiByte/s
system.mem_ctrls1.avgRdBWSys                   646.96                       # Average system read bandwidth in MiByte/s
system.mem_ctrls1.avgWrBWSys                    98.34                       # Average system write bandwidth in MiByte/s
system.mem_ctrls1.peakBW                     12800.00                       # Theoretical peak bandwidth in MiByte/s
system.mem_ctrls1.busUtil                        5.82                       # Data bus utilization in percentage
system.mem_ctrls1.busUtilRead                    5.05                       # Data bus utilization in percentage for reads
system.mem_ctrls1.busUtilWrite                   0.77                       # Data bus utilization in percentage for writes
system.mem_ctrls1.avgRdQLen                      1.53                       # Average read queue length when enqueuing
system.mem_ctrls1.avgWrQLen                     10.44                       # Average write queue length when enqueuing
system.mem_ctrls1.readRowHits                   62031                       # Number of row buffer hits during reads
system.mem_ctrls1.writeRowHits                   6213                       # Number of row buffer hits during writes
system.mem_ctrls1.readRowHitRate                45.93                       # Row buffer hit rate for reads
system.mem_ctrls1.writeRowHitRate               30.26                       # Row buffer hit rate for writes
system.mem_ctrls1.avgGap                     85869.27                       # Average gap between requests
system.mem_ctrls1.pageHitRate                   43.86                       # Row buffer hit rate, read and write combined
system.mem_ctrls1_0.actEnergy               306912900                       # Energy for activate commands per rank (pJ)
system.mem_ctrls1_0.preEnergy               163124280                       # Energy for precharge commands per rank (pJ)
system.mem_ctrls1_0.readEnergy              476138040                       # Energy for read commands per rank (pJ)
system.mem_ctrls1_0.writeEnergy              51865920                       # Energy for write commands per rank (pJ)
system.mem_ctrls1_0.refreshEnergy        1058410080.000000                       # Energy for refresh commands per rank (pJ)
system.mem_ctrls1_0.actBackEnergy          1389943860                       # Energy for active background per rank (pJ)
system.mem_ctrls1_0.preBackEnergy            26054400                       # Energy for precharge background per rank (pJ)
system.mem_ctrls1_0.actPowerDownEnergy     4325696940                       # Energy for active power-down per rank (pJ)
system.mem_ctrls1_0.prePowerDownEnergy      262913760                       # Energy for precharge power-down per rank (pJ)
system.mem_ctrls1_0.selfRefreshEnergy        27859590                       # Energy for self refresh per rank (pJ)
system.mem_ctrls1_0.totalEnergy            8088994740                       # Total energy per rank (pJ)
system.mem_ctrls1_0.averagePower           605.303178                       # Core power per rank (mW)
system.mem_ctrls1_0.totalIdleTime         10247725500                       # Total Idle time Per DRAM Rank
system.mem_ctrls1_0.memoryStateTime::IDLE     14574250                       # Time in different power states
system.mem_ctrls1_0.memoryStateTime::REF    447828000                       # Time in different power states
system.mem_ctrls1_0.memoryStateTime::SREF     76555500                       # Time in different power states
system.mem_ctrls1_0.memoryStateTime::PRE_PDN    684436000                       # Time in different power states
system.mem_ctrls1_0.memoryStateTime::ACT   2653299750                       # Time in different power states
system.mem_ctrls1_0.memoryStateTime::ACT_PDN   9486848500                       # Time in different power states
system.mem_ctrls1_1.actEnergy               316659000                       # Energy for activate commands per rank (pJ)
system.mem_ctrls1_1.preEnergy               168293070                       # Energy for precharge commands per rank (pJ)
system.mem_ctrls1_1.readEnergy              488261760                       # Energy for read commands per rank (pJ)
system.mem_ctrls1_1.writeEnergy              55191060                       # Energy for write commands per rank (pJ)
system.mem_ctrls1_1.refreshEnergy        1060868640.000000                       # Energy for refresh commands per rank (pJ)
system.mem_ctrls1_1.actBackEnergy          1399396170                       # Energy for active background per rank (pJ)
system.mem_ctrls1_1.preBackEnergy            26928000                       # Energy for precharge background per rank (pJ)
system.mem_ctrls1_1.actPowerDownEnergy     4301220570                       # Energy for active power-down per rank (pJ)
system.mem_ctrls1_1.prePowerDownEnergy      264845760                       # Energy for precharge power-down per rank (pJ)
system.mem_ctrls1_1.selfRefreshEnergy        38373000                       # Energy for self refresh per rank (pJ)
system.mem_ctrls1_1.totalEnergy            8120038950                       # Total energy per rank (pJ)
system.mem_ctrls1_1.averagePower           607.626230                       # Core power per rank (mW)
system.mem_ctrls1_1.totalIdleTime         10224543000                       # Total Idle time Per DRAM Rank
system.mem_ctrls1_1.memoryStateTime::IDLE     16534250                       # Time in different power states
system.mem_ctrls1_1.memoryStateTime::REF    448910000                       # Time in different power states
system.mem_ctrls1_1.memoryStateTime::SREF    102356000                       # Time in different power states
system.mem_ctrls1_1.memoryStateTime::PRE_PDN    689512500                       # Time in different power states
system.mem_ctrls1_1.memoryStateTime::ACT   2673161000                       # Time in different power states
system.mem_ctrls1_1.memoryStateTime::ACT_PDN   9433068250                       # Time in different power states
system.mem_ctrls2.pwrStateResidencyTicks::UNDEFINED  13363542000                       # Cumulative time (in ticks) in various power states
system.mem_ctrls2.bytes_read::ruby.dir_cntrl2      8560448                       # Number of bytes read from this memory
system.mem_ctrls2.bytes_read::total           8560448                       # Number of bytes read from this memory
system.mem_ctrls2.bytes_written::ruby.dir_cntrl2      1287424                       # Number of bytes written to this memory
system.mem_ctrls2.bytes_written::total        1287424                       # Number of bytes written to this memory
system.mem_ctrls2.num_reads::ruby.dir_cntrl2       133757                       # Number of read requests responded to by this memory
system.mem_ctrls2.num_reads::total             133757                       # Number of read requests responded to by this memory
system.mem_ctrls2.num_writes::ruby.dir_cntrl2        20116                       # Number of write requests responded to by this memory
system.mem_ctrls2.num_writes::total             20116                       # Number of write requests responded to by this memory
system.mem_ctrls2.bw_read::ruby.dir_cntrl2    640582265                       # Total read bandwidth from this memory (bytes/s)
system.mem_ctrls2.bw_read::total            640582265                       # Total read bandwidth from this memory (bytes/s)
system.mem_ctrls2.bw_write::ruby.dir_cntrl2     96338531                       # Write bandwidth from this memory (bytes/s)
system.mem_ctrls2.bw_write::total            96338531                       # Write bandwidth from this memory (bytes/s)
system.mem_ctrls2.bw_total::ruby.dir_cntrl2    736920795                       # Total bandwidth to/from this memory (bytes/s)
system.mem_ctrls2.bw_total::total           736920795                       # Total bandwidth to/from this memory (bytes/s)
system.mem_ctrls2.readReqs                     133757                       # Number of read requests accepted
system.mem_ctrls2.avgNetLat                      0.00                       # Average network latency to DRAM controller
system.mem_ctrls2.writeReqs                     20116                       # Number of write requests accepted
system.mem_ctrls2.readBursts                   133757                       # Number of DRAM read bursts, including those serviced by the write queue
system.mem_ctrls2.writeBursts                   20116                       # Number of DRAM write bursts, including those merged in the write queue
system.mem_ctrls2.bytesReadDRAM               8560128                       # Total number of bytes read from DRAM
system.mem_ctrls2.bytesReadWrQ                    320                       # Total number of bytes read from write queue
system.mem_ctrls2.bytesWritten                1286400                       # Total number of bytes written to DRAM
system.mem_ctrls2.bytesReadSys                8560448                       # Total read bytes from the system interface side
system.mem_ctrls2.bytesWrittenSys             1287424                       # Total written bytes from the system interface side
system.mem_ctrls2.servicedByWrQ                     5                       # Number of DRAM read bursts serviced by the write queue
system.mem_ctrls2.mergedWrBursts                    0                       # Number of DRAM write bursts merged with an existing one
system.mem_ctrls2.neitherReadNorWriteReqs            0                       # Number of requests that are neither read nor write
system.mem_ctrls2.perBankRdBursts::0             8462                       # Per bank write bursts
system.mem_ctrls2.perBankRdBursts::1             8471                       # Per bank write bursts
system.mem_ctrls2.perBankRdBursts::2             8287                       # Per bank write bursts
system.mem_ctrls2.perBankRdBursts::3             8447                       # Per bank write bursts
system.mem_ctrls2.perBankRdBursts::4             8319                       # Per bank write bursts
system.mem_ctrls2.perBankRdBursts::5             7860                       # Per bank write bursts
system.mem_ctrls2.perBankRdBursts::6             7924                       # Per bank write bursts
system.mem_ctrls2.perBankRdBursts::7             8161                       # Per bank write bursts
system.mem_ctrls2.perBankRdBursts::8             8162                       # Per bank write bursts
system.mem_ctrls2.perBankRdBursts::9             8187                       # Per bank write bursts
system.mem_ctrls2.perBankRdBursts::10            8722                       # Per bank write bursts
system.mem_ctrls2.perBankRdBursts::11            8596                       # Per bank write bursts
system.mem_ctrls2.perBankRdBursts::12            8812                       # Per bank write bursts
system.mem_ctrls2.perBankRdBursts::13            9060                       # Per bank write bursts
system.mem_ctrls2.perBankRdBursts::14            8119                       # Per bank write bursts
system.mem_ctrls2.perBankRdBursts::15            8163                       # Per bank write bursts
system.mem_ctrls2.perBankWrBursts::0             1212                       # Per bank write bursts
system.mem_ctrls2.perBankWrBursts::1             1106                       # Per bank write bursts
system.mem_ctrls2.perBankWrBursts::2             1069                       # Per bank write bursts
system.mem_ctrls2.perBankWrBursts::3             1364                       # Per bank write bursts
system.mem_ctrls2.perBankWrBursts::4             1373                       # Per bank write bursts
system.mem_ctrls2.perBankWrBursts::5             1294                       # Per bank write bursts
system.mem_ctrls2.perBankWrBursts::6             1067                       # Per bank write bursts
system.mem_ctrls2.perBankWrBursts::7             1195                       # Per bank write bursts
system.mem_ctrls2.perBankWrBursts::8             1281                       # Per bank write bursts
system.mem_ctrls2.perBankWrBursts::9             1215                       # Per bank write bursts
system.mem_ctrls2.perBankWrBursts::10            1139                       # Per bank write bursts
system.mem_ctrls2.perBankWrBursts::11            1270                       # Per bank write bursts
system.mem_ctrls2.perBankWrBursts::12            1374                       # Per bank write bursts
system.mem_ctrls2.perBankWrBursts::13            1400                       # Per bank write bursts
system.mem_ctrls2.perBankWrBursts::14            1389                       # Per bank write bursts
system.mem_ctrls2.perBankWrBursts::15            1352                       # Per bank write bursts
system.mem_ctrls2.numRdRetry                        0                       # Number of times read queue was full causing retry
system.mem_ctrls2.numWrRetry                        0                       # Number of times write queue was full causing retry
system.mem_ctrls2.totGap                  13362694000                       # Total gap between requests
system.mem_ctrls2.readPktSize::0                    0                       # Read request sizes (log2)
system.mem_ctrls2.readPktSize::1                    0                       # Read request sizes (log2)
system.mem_ctrls2.readPktSize::2                    0                       # Read request sizes (log2)
system.mem_ctrls2.readPktSize::3                    0                       # Read request sizes (log2)
system.mem_ctrls2.readPktSize::4                    0                       # Read request sizes (log2)
system.mem_ctrls2.readPktSize::5                    0                       # Read request sizes (log2)
system.mem_ctrls2.readPktSize::6               133757                       # Read request sizes (log2)
system.mem_ctrls2.writePktSize::0                   0                       # Write request sizes (log2)
system.mem_ctrls2.writePktSize::1                   0                       # Write request sizes (log2)
system.mem_ctrls2.writePktSize::2                   0                       # Write request sizes (log2)
system.mem_ctrls2.writePktSize::3                   0                       # Write request sizes (log2)
system.mem_ctrls2.writePktSize::4                   0                       # Write request sizes (log2)
system.mem_ctrls2.writePktSize::5                   0                       # Write request sizes (log2)
system.mem_ctrls2.writePktSize::6               20116                       # Write request sizes (log2)
system.mem_ctrls2.rdQLenPdf::0                  66786                       # What read queue length does an incoming req see
system.mem_ctrls2.rdQLenPdf::1                  34285                       # What read queue length does an incoming req see
system.mem_ctrls2.rdQLenPdf::2                  17009                       # What read queue length does an incoming req see
system.mem_ctrls2.rdQLenPdf::3                   8502                       # What read queue length does an incoming req see
system.mem_ctrls2.rdQLenPdf::4                   4162                       # What read queue length does an incoming req see
system.mem_ctrls2.rdQLenPdf::5                   1846                       # What read queue length does an incoming req see
system.mem_ctrls2.rdQLenPdf::6                    739                       # What read queue length does an incoming req see
system.mem_ctrls2.rdQLenPdf::7                    299                       # What read queue length does an incoming req see
system.mem_ctrls2.rdQLenPdf::8                     90                       # What read queue length does an incoming req see
system.mem_ctrls2.rdQLenPdf::9                     28                       # What read queue length does an incoming req see
system.mem_ctrls2.rdQLenPdf::10                     6                       # What read queue length does an incoming req see
system.mem_ctrls2.rdQLenPdf::11                     0                       # What read queue length does an incoming req see
system.mem_ctrls2.rdQLenPdf::12                     0                       # What read queue length does an incoming req see
system.mem_ctrls2.rdQLenPdf::13                     0                       # What read queue length does an incoming req see
system.mem_ctrls2.rdQLenPdf::14                     0                       # What read queue length does an incoming req see
system.mem_ctrls2.rdQLenPdf::15                     0                       # What read queue length does an incoming req see
system.mem_ctrls2.rdQLenPdf::16                     0                       # What read queue length does an incoming req see
system.mem_ctrls2.rdQLenPdf::17                     0                       # What read queue length does an incoming req see
system.mem_ctrls2.rdQLenPdf::18                     0                       # What read queue length does an incoming req see
system.mem_ctrls2.rdQLenPdf::19                     0                       # What read queue length does an incoming req see
system.mem_ctrls2.rdQLenPdf::20                     0                       # What read queue length does an incoming req see
system.mem_ctrls2.rdQLenPdf::21                     0                       # What read queue length does an incoming req see
system.mem_ctrls2.rdQLenPdf::22                     0                       # What read queue length does an incoming req see
system.mem_ctrls2.rdQLenPdf::23                     0                       # What read queue length does an incoming req see
system.mem_ctrls2.rdQLenPdf::24                     0                       # What read queue length does an incoming req see
system.mem_ctrls2.rdQLenPdf::25                     0                       # What read queue length does an incoming req see
system.mem_ctrls2.rdQLenPdf::26                     0                       # What read queue length does an incoming req see
system.mem_ctrls2.rdQLenPdf::27                     0                       # What read queue length does an incoming req see
system.mem_ctrls2.rdQLenPdf::28                     0                       # What read queue length does an incoming req see
system.mem_ctrls2.rdQLenPdf::29                     0                       # What read queue length does an incoming req see
system.mem_ctrls2.rdQLenPdf::30                     0                       # What read queue length does an incoming req see
system.mem_ctrls2.rdQLenPdf::31                     0                       # What read queue length does an incoming req see
system.mem_ctrls2.wrQLenPdf::0                      1                       # What write queue length does an incoming req see
system.mem_ctrls2.wrQLenPdf::1                      1                       # What write queue length does an incoming req see
system.mem_ctrls2.wrQLenPdf::2                      1                       # What write queue length does an incoming req see
system.mem_ctrls2.wrQLenPdf::3                      1                       # What write queue length does an incoming req see
system.mem_ctrls2.wrQLenPdf::4                      1                       # What write queue length does an incoming req see
system.mem_ctrls2.wrQLenPdf::5                      1                       # What write queue length does an incoming req see
system.mem_ctrls2.wrQLenPdf::6                      1                       # What write queue length does an incoming req see
system.mem_ctrls2.wrQLenPdf::7                      1                       # What write queue length does an incoming req see
system.mem_ctrls2.wrQLenPdf::8                      1                       # What write queue length does an incoming req see
system.mem_ctrls2.wrQLenPdf::9                      1                       # What write queue length does an incoming req see
system.mem_ctrls2.wrQLenPdf::10                     1                       # What write queue length does an incoming req see
system.mem_ctrls2.wrQLenPdf::11                     1                       # What write queue length does an incoming req see
system.mem_ctrls2.wrQLenPdf::12                     1                       # What write queue length does an incoming req see
system.mem_ctrls2.wrQLenPdf::13                     1                       # What write queue length does an incoming req see
system.mem_ctrls2.wrQLenPdf::14                     1                       # What write queue length does an incoming req see
system.mem_ctrls2.wrQLenPdf::15                   476                       # What write queue length does an incoming req see
system.mem_ctrls2.wrQLenPdf::16                   515                       # What write queue length does an incoming req see
system.mem_ctrls2.wrQLenPdf::17                   888                       # What write queue length does an incoming req see
system.mem_ctrls2.wrQLenPdf::18                  1156                       # What write queue length does an incoming req see
[...]
system.ruby.L1Cache_Controller.MR.Load::total        47947                      
system.ruby.L1Cache_Controller.MR.Ifetch |         185      3.63%      3.63% |        1018     20.00%     23.63% |         976     19.17%     42.81% |         190      3.73%     46.54% |         989     19.43%     65.97% |           0      0.00%     65.97% |           0      0.00%     65.97% |         157      3.08%     69.06% |         206      4.05%     73.10% |         192      3.77%     76.88% |         217      4.26%     81.14% |         199      3.91%     85.05% |         178      3.50%     88.55% |         182      3.58%     92.12% |         180      3.54%     95.66% |         221      4.34%    100.00%
system.ruby.L1Cache_Controller.MR.Ifetch::total         5090                      
system.ruby.L1Cache_Controller.MR.Store  |           9      7.63%      7.63% |          10      8.47%     16.10% |           8      6.78%     22.88% |           9      7.63%     30.51% |           7      5.93%     36.44% |           0      0.00%     36.44% |           0      0.00%     36.44% |           8      6.78%     43.22% |          10      8.47%     51.69% |           8      6.78%     58.47% |           8      6.78%     65.25% |           9      7.63%     72.88% |           8      6.78%     79.66% |           8      6.78%     86.44% |           8      6.78%     93.22% |           8      6.78%    100.00%
system.ruby.L1Cache_Controller.MR.Store::total          118                      
system.ruby.L1Cache_Controller.MMR.Load  |         790      4.14%      4.14% |         968      5.08%      9.22% |        1828      9.59%     18.81% |         827      4.34%     23.15% |        1094      5.74%     28.89% |           0      0.00%     28.89% |           0      0.00%     28.89% |        1060      5.56%     34.45% |        5400     28.33%     62.78% |         884      4.64%     67.42% |         871      4.57%     71.99% |         863      4.53%     76.52% |        1098      5.76%     82.28% |        1143      6.00%     88.27% |        1011      5.30%     93.58% |        1224      6.42%    100.00%
system.ruby.L1Cache_Controller.MMR.Load::total        19061                      
system.ruby.L1Cache_Controller.MMR.Store |         987      5.61%      5.61% |        1507      8.56%     14.16% |        1537      8.73%     22.89% |         988      5.61%     28.51% |        1303      7.40%     35.91% |           0      0.00%     35.91% |           0      0.00%     35.91% |         792      4.50%     40.40% |         854      4.85%     45.25% |         678      3.85%     49.11% |        1462      8.30%     57.41% |        1449      8.23%     65.64% |        1616      9.18%     74.82% |        1381      7.84%     82.66% |        1615      9.17%     91.83% |        1438      8.17%    100.00%
system.ruby.L1Cache_Controller.MMR.Store::total        17607                      
system.ruby.L1Cache_Controller.IM.Ack    |      156696      8.44%      8.44% |      158154      8.51%     16.95% |      161838      8.71%     25.66% |      156804      8.44%     34.10% |      166180      8.95%     43.05% |        5746      0.31%     43.36% |        5809      0.31%     43.67% |       37796      2.03%     45.71% |       37192      2.00%     47.71% |       37907      2.04%     49.75% |      153692      8.27%     58.02% |      153833      8.28%     66.30% |      157068      8.46%     74.76% |      161423      8.69%     83.45% |      152580      8.21%     91.66% |      154886      8.34%    100.00%
system.ruby.L1Cache_Controller.IM.Ack::total      1857604                      
system.ruby.L1Cache_Controller.IM.Exclusive_Data |       10464      8.42%      8.42% |       10560      8.49%     16.91% |       10806      8.69%     25.60% |       10471      8.42%     34.03% |       11101      8.93%     42.96% |         525      0.42%     43.38% |         525      0.42%     43.80% |        2534      2.04%     45.84% |        2490      2.00%     47.84% |        2545      2.05%     49.89% |       10260      8.25%     58.14% |       10265      8.26%     66.40% |       10481      8.43%     74.83% |       10774      8.67%     83.50% |       10183      8.19%     91.69% |       10335      8.31%    100.00%
system.ruby.L1Cache_Controller.IM.Exclusive_Data::total       124319                      
system.ruby.L1Cache_Controller.SM.Ack    |           5      4.95%      4.95% |           5      4.95%      9.90% |           6      5.94%     15.84% |           4      3.96%     19.80% |           6      5.94%     25.74% |           0      0.00%     25.74% |           0      0.00%     25.74% |           6      5.94%     31.68% |           8      7.92%     39.60% |           4      3.96%     43.56% |          11     10.89%     54.46% |           9      8.91%     63.37% |          12     11.88%     75.25% |           8      7.92%     83.17% |           8      7.92%     91.09% |           9      8.91%    100.00%
system.ruby.L1Cache_Controller.SM.Ack::total          101                      
system.ruby.L1Cache_Controller.SM.Data   |           1      7.14%      7.14% |           1      7.14%     14.29% |           1      7.14%     21.43% |           1      7.14%     28.57% |           1      7.14%     35.71% |           0      0.00%     35.71% |           0      0.00%     35.71% |           1      7.14%     42.86% |           1      7.14%     50.00% |           1      7.14%     57.14% |           1      7.14%     64.29% |           1      7.14%     71.43% |           1      7.14%     78.57% |           1      7.14%     85.71% |           1      7.14%     92.86% |           1      7.14%    100.00%
system.ruby.L1Cache_Controller.SM.Data::total           14                      
system.ruby.L1Cache_Controller.ISM.Ack   |           9      9.47%      9.47% |           9      9.47%     18.95% |           8      8.42%     27.37% |          10     10.53%     37.89% |           8      8.42%     46.32% |           0      0.00%     46.32% |           0      0.00%     46.32% |           8      8.42%     54.74% |           6      6.32%     61.05% |          10     10.53%     71.58% |           3      3.16%     74.74% |           5      5.26%     80.00% |           2      2.11%     82.11% |           6      6.32%     88.42% |           6      6.32%     94.74% |           5      5.26%    100.00%
system.ruby.L1Cache_Controller.ISM.Ack::total           95                      
system.ruby.L1Cache_Controller.ISM.All_acks_no_sharers |           1      7.14%      7.14% |           1      7.14%     14.29% |           1      7.14%     21.43% |           1      7.14%     28.57% |           1      7.14%     35.71% |           0      0.00%     35.71% |           0      0.00%     35.71% |           1      7.14%     42.86% |           1      7.14%     50.00% |           1      7.14%     57.14% |           1      7.14%     64.29% |           1      7.14%     71.43% |           1      7.14%     78.57% |           1      7.14%     85.71% |           1      7.14%     92.86% |           1      7.14%    100.00%
system.ruby.L1Cache_Controller.ISM.All_acks_no_sharers::total           14                      
system.ruby.L1Cache_Controller.M_W.Load  |           0      0.00%      0.00% |           1    100.00%    100.00% |           0      0.00%    100.00% |           0      0.00%    100.00% |           0      0.00%    100.00% |           0      0.00%    100.00% |           0      0.00%    100.00% |           0      0.00%    100.00% |           0      0.00%    100.00% |           0      0.00%    100.00% |           0      0.00%    100.00% |           0      0.00%    100.00% |           0      0.00%    100.00% |           0      0.00%    100.00% |           0      0.00%    100.00% |           0      0.00%    100.00%
system.ruby.L1Cache_Controller.M_W.Load::total            1                      
system.ruby.L1Cache_Controller.M_W.Store |           0      0.00%      0.00% |           0      0.00%      0.00% |           1     20.00%     20.00% |           0      0.00%     20.00% |           2     40.00%     60.00% |           0      0.00%     60.00% |           0      0.00%     60.00% |           0      0.00%     60.00% |           2     40.00%    100.00% |           0      0.00%    100.00% |           0      0.00%    100.00% |           0      0.00%    100.00% |           0      0.00%    100.00% |           0      0.00%    100.00% |           0      0.00%    100.00% |           0      0.00%    100.00%
system.ruby.L1Cache_Controller.M_W.Store::total            5                      
system.ruby.L1Cache_Controller.M_W.Ack   |         697      6.24%      6.24% |         663      5.93%     12.17% |         673      6.02%     18.20% |         636      5.69%     23.89% |         788      7.05%     30.94% |        1806     16.16%     47.10% |        1836     16.43%     63.54% |         538      4.82%     68.35% |         455      4.07%     72.42% |         675      6.04%     78.47% |         578      5.17%     83.64% |         316      2.83%     86.47% |         356      3.19%     89.65% |         392      3.51%     93.16% |         443      3.96%     97.13% |         321      2.87%    100.00%
system.ruby.L1Cache_Controller.M_W.Ack::total        11173                      
system.ruby.L1Cache_Controller.M_W.All_acks_no_sharers |        9519      2.28%      2.28% |       25055      6.01%      8.30% |       50443     12.11%     20.40% |        9519      2.28%     22.69% |       41632      9.99%     32.68% |         364      0.09%     32.77% |         364      0.09%     32.85% |       49399     11.86%     44.71% |       56411     13.54%     58.25% |        9519      2.28%     60.53% |       17126      4.11%     64.64% |       16985      4.08%     68.72% |       32587      7.82%     76.54% |       41029      9.85%     86.39% |       24215      5.81%     92.20% |       32510      7.80%    100.00%
system.ruby.L1Cache_Controller.M_W.All_acks_no_sharers::total       416677                      
system.ruby.L1Cache_Controller.MM_W.Store |           0      0.00%      0.00% |           1     16.67%     16.67% |           0      0.00%     16.67% |           0      0.00%     16.67% |           4     66.67%     83.33% |           0      0.00%     83.33% |           0      0.00%     83.33% |           0      0.00%     83.33% |           0      0.00%     83.33% |           0      0.00%     83.33% |           0      0.00%     83.33% |           0      0.00%     83.33% |           0      0.00%     83.33% |           0      0.00%     83.33% |           1     16.67%    100.00% |           0      0.00%    100.00%
system.ruby.L1Cache_Controller.MM_W.Store::total            6                      
system.ruby.L1Cache_Controller.MM_W.Ack  |         238      3.89%      3.89% |         220      3.59%      7.48% |         227      3.71%     11.19% |         235      3.84%     15.02% |         314      5.13%     20.15% |        1779     29.05%     49.20% |        1716     28.02%     77.22% |         188      3.07%     80.29% |         133      2.17%     82.46% |         242      3.95%     86.41% |         182      2.97%     89.39% |         116      1.89%     91.28% |         121      1.98%     93.26% |         161      2.63%     95.89% |         139      2.27%     98.15% |         113      1.85%    100.00%
system.ruby.L1Cache_Controller.MM_W.Ack::total         6124                      
system.ruby.L1Cache_Controller.MM_W.All_acks_no_sharers |       10464      8.42%      8.42% |       10560      8.49%     16.91% |       10807      8.69%     25.60% |       10471      8.42%     34.03% |       11103      8.93%     42.96% |         525      0.42%     43.38% |         525      0.42%     43.80% |        2534      2.04%     45.84% |        2492      2.00%     47.84% |        2545      2.05%     49.89% |       10260      8.25%     58.14% |       10265      8.26%     66.40% |       10481      8.43%     74.83% |       10774      8.67%     83.50% |       10183      8.19%     91.69% |       10335      8.31%    100.00%
system.ruby.L1Cache_Controller.MM_W.All_acks_no_sharers::total       124324                      
system.ruby.L1Cache_Controller.IS.Ack    |      142019      2.28%      2.28% |      375092      6.01%      8.29% |      755917     12.12%     20.41% |      142079      2.28%     22.69% |      623646     10.00%     32.69% |        3290      0.05%     32.74% |        3260      0.05%     32.79% |      740380     11.87%     44.66% |      845673     13.56%     58.22% |      142039      2.28%     60.50% |      256242      4.11%     64.60% |      254390      4.08%     68.68% |      488382      7.83%     76.51% |      614978      9.86%     86.37% |      362720      5.82%     92.19% |      487267      7.81%    100.00%
system.ruby.L1Cache_Controller.IS.Ack::total      6237374                      
system.ruby.L1Cache_Controller.IS.Shared_Data |           1      7.14%      7.14% |           1      7.14%     14.29% |           1      7.14%     21.43% |           1      7.14%     28.57% |           1      7.14%     35.71% |           0      0.00%     35.71% |           0      0.00%     35.71% |           1      7.14%     42.86% |           1      7.14%     50.00% |           1      7.14%     57.14% |           1      7.14%     64.29% |           1      7.14%     71.43% |           1      7.14%     78.57% |           1      7.14%     85.71% |           1      7.14%     92.86% |           1      7.14%    100.00%
system.ruby.L1Cache_Controller.IS.Shared_Data::total           14                      
system.ruby.L1Cache_Controller.IS.Exclusive_Data |        9519      2.28%      2.28% |       25055      6.01%      8.30% |       50444     12.11%     20.40% |        9519      2.28%     22.69% |       41634      9.99%     32.68% |         364      0.09%     32.77% |         364      0.09%     32.85% |       49399     11.86%     44.71% |       56413     13.54%     58.25% |        9519      2.28%     60.53% |       17126      4.11%     64.64% |       16985      4.08%     68.72% |       32587      7.82%     76.54% |       41029      9.85%     86.39% |       24215      5.81%     92.20% |       32510      7.80%    100.00%
system.ruby.L1Cache_Controller.IS.Exclusive_Data::total       416682                      
system.ruby.L1Cache_Controller.SS.Ack    |           8      8.51%      8.51% |           9      9.57%     18.09% |           8      8.51%     26.60% |           9      9.57%     36.17% |          10     10.64%     46.81% |           0      0.00%     46.81% |           0      0.00%     46.81% |           6      6.38%     53.19% |           5      5.32%     58.51% |          10     10.64%     69.15% |           9      9.57%     78.72% |           8      8.51%     87.23% |           6      6.38%     93.62% |           4      4.26%     97.87% |           1      1.06%     98.94% |           1      1.06%    100.00%
system.ruby.L1Cache_Controller.SS.Ack::total           94                      
system.ruby.L1Cache_Controller.SS.All_acks |           1      7.14%      7.14% |           1      7.14%     14.29% |           1      7.14%     21.43% |           1      7.14%     28.57% |           1      7.14%     35.71% |           0      0.00%     35.71% |           0      0.00%     35.71% |           1      7.14%     42.86% |           1      7.14%     50.00% |           1      7.14%     57.14% |           1      7.14%     64.29% |           1      7.14%     71.43% |           1      7.14%     78.57% |           1      7.14%     85.71% |           1      7.14%     92.86% |           1      7.14%    100.00%
system.ruby.L1Cache_Controller.SS.All_acks::total           14                      
system.ruby.L1Cache_Controller.MI.Load   |           0      0.00%      0.00% |           3      6.82%      6.82% |           5     11.36%     18.18% |           0      0.00%     18.18% |           9     20.45%     38.64% |           0      0.00%     38.64% |           0      0.00%     38.64% |           8     18.18%     56.82% |           8     18.18%     75.00% |           0      0.00%     75.00% |           0      0.00%     75.00% |           0      0.00%     75.00% |           1      2.27%     77.27% |           4      9.09%     86.36% |           0      0.00%     86.36% |           6     13.64%    100.00%
system.ruby.L1Cache_Controller.MI.Load::total           44                      
system.ruby.L1Cache_Controller.MI.Ifetch |           0      0.00%      0.00% |           0      0.00%      0.00% |           0      0.00%      0.00% |           0      0.00%      0.00% |           0      0.00%      0.00% |           0      0.00%      0.00% |           0      0.00%      0.00% |           0      0.00%      0.00% |           0      0.00%      0.00% |           0      0.00%      0.00% |           0      0.00%      0.00% |           0      0.00%      0.00% |           1     50.00%     50.00% |           1     50.00%    100.00% |           0      0.00%    100.00% |           0      0.00%    100.00%
system.ruby.L1Cache_Controller.MI.Ifetch::total            2                      
system.ruby.L1Cache_Controller.MI.Store  |           0      0.00%      0.00% |           0      0.00%      0.00% |           0      0.00%      0.00% |           0      0.00%      0.00% |           5     62.50%     62.50% |           0      0.00%     62.50% |           0      0.00%     62.50% |           0      0.00%     62.50% |           0      0.00%     62.50% |           0      0.00%     62.50% |           0      0.00%     62.50% |           0      0.00%     62.50% |           0      0.00%     62.50% |           2     25.00%     87.50% |           0      0.00%     87.50% |           1     12.50%    100.00%
system.ruby.L1Cache_Controller.MI.Store::total            8                      
system.ruby.L1Cache_Controller.MI.Writeback_Ack |          57      0.04%      0.04% |        2774      2.15%      2.19% |       26947     20.84%     23.03% |          76      0.06%     23.09% |       18467     14.28%     37.37% |           0      0.00%     37.37% |           0      0.00%     37.37% |       17713     13.70%     51.07% |       24712     19.11%     70.19% |           1      0.00%     70.19% |         547      0.42%     70.61% |         170      0.13%     70.74% |        9119      7.05%     77.79% |       17531     13.56%     91.35% |        2385      1.84%     93.20% |        8796      6.80%    100.00%
system.ruby.L1Cache_Controller.MI.Writeback_Ack::total       129295                      
system.ruby.L1Cache_Controller.MT.Complete_L2_to_L1 |        3709      6.98%      6.98% |        4514      8.49%     15.47% |        4326      8.14%     23.61% |        3570      6.72%     30.32% |        4492      8.45%     38.78% |           0      0.00%     38.78% |           0      0.00%     38.78% |        3657      6.88%     45.66% |        3710      6.98%     52.63% |        3582      6.74%     59.37% |        3642      6.85%     66.23% |        3652      6.87%     73.10% |        3603      6.78%     79.87% |        3544      6.67%     86.54% |        3540      6.66%     93.20% |        3614      6.80%    100.00%
system.ruby.L1Cache_Controller.MT.Complete_L2_to_L1::total        53155                      
system.ruby.L1Cache_Controller.MMT.Complete_L2_to_L1 |        1777      4.85%      4.85% |        2475      6.75%     11.60% |        3365      9.18%     20.77% |        1815      4.95%     25.72% |        2397      6.54%     32.26% |           0      0.00%     32.26% |           0      0.00%     32.26% |        1852      5.05%     37.31% |        6254     17.06%     54.37% |        1562      4.26%     58.63% |        2333      6.36%     64.99% |        2312      6.31%     71.29% |        2714      7.40%     78.70% |        2524      6.88%     85.58% |        2626      7.16%     92.74% |        2662      7.26%    100.00%
system.ruby.L1Cache_Controller.MMT.Complete_L2_to_L1::total        36668                      

---------- End Simulation Statistics   ----------
