
---------- Begin Simulation Statistics ----------
sim_seconds                                  0.015967                       # Number of seconds simulated
sim_ticks                                 15966828000                       # Number of ticks simulated
final_tick                                15966828000                       # Number of ticks from beginning of simulation (restored from checkpoints and never reset)
sim_freq                                 1000000000000                       # Frequency of simulated ticks
host_inst_rate                                  55621                       # Simulator instruction rate (inst/s)
host_op_rate                                    96515                       # Simulator op (including micro ops) rate (op/s)
host_tick_rate                               19324067                       # Simulator tick rate (ticks/s)
host_mem_usage                                2039112                       # Number of bytes of host memory used
host_seconds                                   826.27                       # Real time elapsed on the host
sim_insts                                    45958093                       # Number of instructions simulated
sim_ops                                      79747100                       # Number of ops (including micro ops) simulated
system.voltage_domain.voltage                       1                       # Voltage in Volts
system.clk_domain.clock                          1000                       # Clock period in ticks
system.mem_ctrls0.pwrStateResidencyTicks::UNDEFINED  15966828000                       # Cumulative time (in ticks) in various power states
system.mem_ctrls0.bytes_read::ruby.dir_cntrl0     10307648                       # Number of bytes read from this memory
system.mem_ctrls0.bytes_read::total          10307648                       # Number of bytes read from this memory
system.mem_ctrls0.bytes_written::ruby.dir_cntrl0      1277632                       # Number of bytes written to this memory
system.mem_ctrls0.bytes_written::total        1277632                       # Number of bytes written to this memory
system.mem_ctrls0.num_reads::ruby.dir_cntrl0       161057                       # Number of read requests responded to by this memory
system.mem_ctrls0.num_reads::total             161057                       # Number of read requests responded to by this memory
system.mem_ctrls0.num_writes::ruby.dir_cntrl0        19963                       # Number of write requests responded to by this memory
system.mem_ctrls0.num_writes::total             19963                       # Number of write requests responded to by this memory
system.mem_ctrls0.bw_read::ruby.dir_cntrl0    645566421                       # Total read bandwidth from this memory (bytes/s)
system.mem_ctrls0.bw_read::total            645566421                       # Total read bandwidth from this memory (bytes/s)
system.mem_ctrls0.bw_write::ruby.dir_cntrl0     80017897                       # Write bandwidth from this memory (bytes/s)
system.mem_ctrls0.bw_write::total            80017897                       # Write bandwidth from this memory (bytes/s)
system.mem_ctrls0.bw_total::ruby.dir_cntrl0    725584318                       # Total bandwidth to/from this memory (bytes/s)
system.mem_ctrls0.bw_total::total           725584318                       # Total bandwidth to/from this memory (bytes/s)
system.mem_ctrls0.readReqs                     161057                       # Number of read requests accepted
system.mem_ctrls0.avgNetLat                      0.00                       # Average network latency to DRAM controller
system.mem_ctrls0.writeReqs                     19963                       # Number of write requests accepted
system.mem_ctrls0.readBursts                   161057                       # Number of DRAM read bursts, including those serviced by the write queue
system.mem_ctrls0.writeBursts                   19963                       # Number of DRAM write bursts, including those merged in the write queue
system.mem_ctrls0.bytesReadDRAM              10307136                       # Total number of bytes read from DRAM
system.mem_ctrls0.bytesReadWrQ                    512                       # Total number of bytes read from write queue
system.mem_ctrls0.bytesWritten                1276544                       # Total number of bytes written to DRAM
system.mem_ctrls0.bytesReadSys               10307648                       # Total read bytes from the system interface side
system.mem_ctrls0.bytesWrittenSys             1277632                       # Total written bytes from the system interface side
system.mem_ctrls0.servicedByWrQ                     8                       # Number of DRAM read bursts serviced by the write queue
system.mem_ctrls0.mergedWrBursts                    0                       # Number of DRAM write bursts merged with an existing one
system.mem_ctrls0.neitherReadNorWriteReqs            0                       # Number of requests that are neither read nor write
system.mem_ctrls0.perBankRdBursts::0            10445                       # Per bank write bursts
system.mem_ctrls0.perBankRdBursts::1            10351                       # Per bank write bursts
system.mem_ctrls0.perBankRdBursts::2            10165                       # Per bank write bursts
system.mem_ctrls0.perBankRdBursts::3            10164                       # Per bank write bursts
system.mem_ctrls0.perBankRdBursts::4             9410                       # Per bank write bursts
system.mem_ctrls0.perBankRdBursts::5             9361                       # Per bank write bursts
system.mem_ctrls0.perBankRdBursts::6             9590                       # Per bank write bursts
system.mem_ctrls0.perBankRdBursts::7             9735                       # Per bank write bursts
system.mem_ctrls0.perBankRdBursts::8             9581                       # Per bank write bursts
system.mem_ctrls0.perBankRdBursts::9             9927                       # Per bank write bursts
system.mem_ctrls0.perBankRdBursts::10           10412                       # Per bank write bursts
system.mem_ctrls0.perBankRdBursts::11           10493                       # Per bank write bursts
system.mem_ctrls0.perBankRdBursts::12           10727                       # Per bank write bursts
system.mem_ctrls0.perBankRdBursts::13           10752                       # Per bank write bursts
system.mem_ctrls0.perBankRdBursts::14            9946                       # Per bank write bursts
system.mem_ctrls0.perBankRdBursts::15            9990                       # Per bank write bursts
system.mem_ctrls0.perBankWrBursts::0             1320                       # Per bank write bursts
system.mem_ctrls0.perBankWrBursts::1             1249                       # Per bank write bursts
system.mem_ctrls0.perBankWrBursts::2             1222                       # Per bank write bursts
system.mem_ctrls0.perBankWrBursts::3             1316                       # Per bank write bursts
system.mem_ctrls0.perBankWrBursts::4             1066                       # Per bank write bursts
system.mem_ctrls0.perBankWrBursts::5              998                       # Per bank write bursts
system.mem_ctrls0.perBankWrBursts::6             1108                       # Per bank write bursts
system.mem_ctrls0.perBankWrBursts::7             1150                       # Per bank write bursts
system.mem_ctrls0.perBankWrBursts::8             1089                       # Per bank write bursts
system.mem_ctrls0.perBankWrBursts::9             1176                       # Per bank write bursts
system.mem_ctrls0.perBankWrBursts::10            1355                       # Per bank write bursts
system.mem_ctrls0.perBankWrBursts::11            1416                       # Per bank write bursts
system.mem_ctrls0.perBankWrBursts::12            1495                       # Per bank write bursts
system.mem_ctrls0.perBankWrBursts::13            1486                       # Per bank write bursts
system.mem_ctrls0.perBankWrBursts::14            1264                       # Per bank write bursts
system.mem_ctrls0.perBankWrBursts::15            1236                       # Per bank write bursts
system.mem_ctrls0.numRdRetry                        0                       # Number of times read queue was full causing retry
system.mem_ctrls0.numWrRetry                        0                       # Number of times write queue was full causing retry
system.mem_ctrls0.totGap                  15965489000                       # Total gap between requests
system.mem_ctrls0.readPktSize::0                    0                       # Read request sizes (log2)
system.mem_ctrls0.readPktSize::1                    0                       # Read request sizes (log2)
system.mem_ctrls0.readPktSize::2                    0                       # Read request sizes (log2)
system.mem_ctrls0.readPktSize::3                    0                       # Read request sizes (log2)
system.mem_ctrls0.readPktSize::4                    0                       # Read request sizes (log2)
system.mem_ctrls0.readPktSize::5                    0                       # Read request sizes (log2)
system.mem_ctrls0.readPktSize::6               161057                       # Read request sizes (log2)
system.mem_ctrls0.writePktSize::0                   0                       # Write request sizes (log2)
system.mem_ctrls0.writePktSize::1                   0                       # Write request sizes (log2)
system.mem_ctrls0.writePktSize::2                   0                       # Write request sizes (log2)
system.mem_ctrls0.writePktSize::3                   0                       # Write request sizes (log2)
system.mem_ctrls0.writePktSize::4                   0                       # Write request sizes (log2)
system.mem_ctrls0.writePktSize::5                   0                       # Write request sizes (log2)
system.mem_ctrls0.writePktSize::6               19963                       # Write request sizes (log2)
system.mem_ctrls0.rdQLenPdf::0                  77376                       # What read queue length does an incoming req see
system.mem_ctrls0.rdQLenPdf::1                  42483                       # What read queue length does an incoming req see
system.mem_ctrls0.rdQLenPdf::2                  22346                       # What read queue length does an incoming req see
system.mem_ctrls0.rdQLenPdf::3                  10857                       # What read queue length does an incoming req see
system.mem_ctrls0.rdQLenPdf::4                   4832                       # What read queue length does an incoming req see
system.mem_ctrls0.rdQLenPdf::5                   2045                       # What read queue length does an incoming req see
system.mem_ctrls0.rdQLenPdf::6                    771                       # What read queue length does an incoming req see
system.mem_ctrls0.rdQLenPdf::7                    237                       # What read queue length does an incoming req see
system.mem_ctrls0.rdQLenPdf::8                     80                       # What read queue length does an incoming req see
system.mem_ctrls0.rdQLenPdf::9                     18                       # What read queue length does an incoming req see
system.mem_ctrls0.rdQLenPdf::10                     2                       # What read queue length does an incoming req see
system.mem_ctrls0.rdQLenPdf::11                     2                       # What read queue length does an incoming req see
system.mem_ctrls0.rdQLenPdf::12                     0                       # What read queue length does an incoming req see
system.mem_ctrls0.rdQLenPdf::13                     0                       # What read queue length does an incoming req see
system.mem_ctrls0.rdQLenPdf::14                     0                       # What read queue length does an incoming req see
system.mem_ctrls0.rdQLenPdf::15                     0                       # What read queue length does an incoming req see
system.mem_ctrls0.rdQLenPdf::16                     0                       # What read queue length does an incoming req see
system.mem_ctrls0.rdQLenPdf::17                     0                       # What read queue length does an incoming req see
system.mem_ctrls0.rdQLenPdf::18                     0                       # What read queue length does an incoming req see
system.mem_ctrls0.rdQLenPdf::19                     0                       # What read queue length does an incoming req see
system.mem_ctrls0.rdQLenPdf::20                     0                       # What read queue length does an incoming req see
system.mem_ctrls0.rdQLenPdf::21                     0                       # What read queue length does an incoming req see
system.mem_ctrls0.rdQLenPdf::22                     0                       # What read queue length does an incoming req see
system.mem_ctrls0.rdQLenPdf::23                     0                       # What read queue length does an incoming req see
system.mem_ctrls0.rdQLenPdf::24                     0                       # What read queue length does an incoming req see
system.mem_ctrls0.rdQLenPdf::25                     0                       # What read queue length does an incoming req see
system.mem_ctrls0.rdQLenPdf::26                     0                       # What read queue length does an incoming req see
system.mem_ctrls0.rdQLenPdf::27                     0                       # What read queue length does an incoming req see
system.mem_ctrls0.rdQLenPdf::28                     0                       # What read queue length does an incoming req see
system.mem_ctrls0.rdQLenPdf::29                     0                       # What read queue length does an incoming req see
system.mem_ctrls0.rdQLenPdf::30                     0                       # What read queue length does an incoming req see
system.mem_ctrls0.rdQLenPdf::31                     0                       # What read queue length does an incoming req see
system.mem_ctrls0.wrQLenPdf::0                      1                       # What write queue length does an incoming req see
system.mem_ctrls0.wrQLenPdf::1                      1                       # What write queue length does an incoming req see
system.mem_ctrls0.wrQLenPdf::2                      1                       # What write queue length does an incoming req see
system.mem_ctrls0.wrQLenPdf::3                      1                       # What write queue length does an incoming req see
system.mem_ctrls0.wrQLenPdf::4                      1                       # What write queue length does an incoming req see
system.mem_ctrls0.wrQLenPdf::5                      1                       # What write queue length does an incoming req see
system.mem_ctrls0.wrQLenPdf::6                      1                       # What write queue length does an incoming req see
system.mem_ctrls0.wrQLenPdf::7                      1                       # What write queue length does an incoming req see
system.mem_ctrls0.wrQLenPdf::8                      1                       # What write queue length does an incoming req see
system.mem_ctrls0.wrQLenPdf::9                      1                       # What write queue length does an incoming req see
system.mem_ctrls0.wrQLenPdf::10                     1                       # What write queue length does an incoming req see
system.mem_ctrls0.wrQLenPdf::11                     1                       # What write queue length does an incoming req see
system.mem_ctrls0.wrQLenPdf::12                     1                       # What write queue length does an incoming req see
system.mem_ctrls0.wrQLenPdf::13                     1                       # What write queue length does an incoming req see
system.mem_ctrls0.wrQLenPdf::14                     1                       # What write queue length does an incoming req see
system.mem_ctrls0.wrQLenPdf::15                   318                       # What write queue length does an incoming req see
system.mem_ctrls0.wrQLenPdf::16                   382                       # What write queue length does an incoming req see
system.mem_ctrls0.wrQLenPdf::17                   840                       # What write queue length does an incoming req see
system.mem_ctrls0.wrQLenPdf::18                  1141                       # What write queue length does an incoming req see
system.mem_ctrls0.wrQLenPdf::19                  1229                       # What write queue length does an incoming req see
system.mem_ctrls0.wrQLenPdf::20                  1233                       # What write queue length does an incoming req see
system.mem_ctrls0.wrQLenPdf::21                  1248                       # What write queue length does an incoming req see
system.mem_ctrls0.wrQLenPdf::22                  1227                       # What write queue length does an incoming req see
system.mem_ctrls0.wrQLenPdf::23                  1238                       # What write queue length does an incoming req see
system.mem_ctrls0.wrQLenPdf::24                  1236                       # What write queue length does an incoming req see
system.mem_ctrls0.wrQLenPdf::25                  1232                       # What write queue length does an incoming req see
system.mem_ctrls0.wrQLenPdf::26                  1221                       # What write queue length does an incoming req see
system.mem_ctrls0.wrQLenPdf::27                  1228                       # What write queue length does an incoming req see
system.mem_ctrls0.wrQLenPdf::28                  1239                       # What write queue length does an incoming req see
system.mem_ctrls0.wrQLenPdf::29                  1225                       # What write queue length does an incoming req see
system.mem_ctrls0.wrQLenPdf::30                  1230                       # What write queue length does an incoming req see
system.mem_ctrls0.wrQLenPdf::31                  1230                       # What write queue length does an incoming req see
system.mem_ctrls0.wrQLenPdf::32                  1222                       # What write queue length does an incoming req see
system.mem_ctrls0.wrQLenPdf::33                    27                       # What write queue length does an incoming req see
system.mem_ctrls0.wrQLenPdf::34                     2                       # What write queue length does an incoming req see
system.mem_ctrls0.wrQLenPdf::35                     0                       # What write queue length does an incoming req see
system.mem_ctrls0.wrQLenPdf::36                     0                       # What write queue length does an incoming req see
system.mem_ctrls0.wrQLenPdf::37                     0                       # What write queue length does an incoming req see
system.mem_ctrls0.wrQLenPdf::38                     0                       # What write queue length does an incoming req see
system.mem_ctrls0.wrQLenPdf::39                     0                       # What write queue length does an incoming req see
system.mem_ctrls0.wrQLenPdf::40                     0                       # What write queue length does an incoming req see
system.mem_ctrls0.wrQLenPdf::41                     0                       # What write queue length does an incoming req see
system.mem_ctrls0.wrQLenPdf::42                     0                       # What write queue length does an incoming req see
system.mem_ctrls0.wrQLenPdf::43                     0                       # What write queue length does an incoming req see
system.mem_ctrls0.wrQLenPdf::44                     0                       # What write queue length does an incoming req see
system.mem_ctrls0.wrQLenPdf::45                     0                       # What write queue length does an incoming req see
system.mem_ctrls0.wrQLenPdf::46                     0                       # What write queue length does an incoming req see
system.mem_ctrls0.wrQLenPdf::47                     0                       # What write queue length does an incoming req see
system.mem_ctrls0.wrQLenPdf::48                     0                       # What write queue length does an incoming req see
system.mem_ctrls0.wrQLenPdf::49                     0                       # What write queue length does an incoming req see
system.mem_ctrls0.wrQLenPdf::50                     0                       # What write queue length does an incoming req see
system.mem_ctrls0.wrQLenPdf::51                     0                       # What write queue length does an incoming req see
system.mem_ctrls0.wrQLenPdf::52                     0                       # What write queue length does an incoming req see
system.mem_ctrls0.wrQLenPdf::53                     0                       # What write queue length does an incoming req see
system.mem_ctrls0.wrQLenPdf::54                     0                       # What write queue length does an incoming req see
system.mem_ctrls0.wrQLenPdf::55                     0                       # What write queue length does an incoming req see
system.mem_ctrls0.wrQLenPdf::56                     0                       # What write queue length does an incoming req see
system.mem_ctrls0.wrQLenPdf::57                     0                       # What write queue length does an incoming req see
system.mem_ctrls0.wrQLenPdf::58                     0                       # What write queue length does an incoming req see
system.mem_ctrls0.wrQLenPdf::59                     0                       # What write queue length does an incoming req see
system.mem_ctrls0.wrQLenPdf::60                     0                       # What write queue length does an incoming req see
system.mem_ctrls0.wrQLenPdf::61                     0                       # What write queue length does an incoming req see
system.mem_ctrls0.wrQLenPdf::62                     0                       # What write queue length does an incoming req see
system.mem_ctrls0.wrQLenPdf::63                     0                       # What write queue length does an incoming req see
system.mem_ctrls0.bytesPerActivate::samples       105450                       # Bytes accessed per row activation
system.mem_ctrls0.bytesPerActivate::mean   109.843300                       # Bytes accessed per row activation
system.mem_ctrls0.bytesPerActivate::gmean    86.391429                       # Bytes accessed per row activation
system.mem_ctrls0.bytesPerActivate::stdev   116.458924                       # Bytes accessed per row activation
system.mem_ctrls0.bytesPerActivate::0-127        77014     73.03%     73.03% # Bytes accessed per row activation
system.mem_ctrls0.bytesPerActivate::128-255        18898     17.92%     90.95% # Bytes accessed per row activation
system.mem_ctrls0.bytesPerActivate::256-383         4211      3.99%     94.95% # Bytes accessed per row activation
system.mem_ctrls0.bytesPerActivate::384-511         2271      2.15%     97.10% # Bytes accessed per row activation
system.mem_ctrls0.bytesPerActivate::512-639         1442      1.37%     98.47% # Bytes accessed per row activation
system.mem_ctrls0.bytesPerActivate::640-767         1046      0.99%     99.46% # Bytes accessed per row activation
system.mem_ctrls0.bytesPerActivate::768-895          255      0.24%     99.70% # Bytes accessed per row activation
system.mem_ctrls0.bytesPerActivate::896-1023          168      0.16%     99.86% # Bytes accessed per row activation
system.mem_ctrls0.bytesPerActivate::1024-1151          145      0.14%    100.00% # Bytes accessed per row activation
system.mem_ctrls0.bytesPerActivate::total       105450                       # Bytes accessed per row activation
system.mem_ctrls0.rdPerTurnAround::samples         1201                       # Reads before turning the bus around for writes
system.mem_ctrls0.rdPerTurnAround::mean    134.092423                       # Reads before turning the bus around for writes
system.mem_ctrls0.rdPerTurnAround::gmean    52.764886                       # Reads before turning the bus around for writes
system.mem_ctrls0.rdPerTurnAround::stdev  1875.733080                       # Reads before turning the bus around for writes
system.mem_ctrls0.rdPerTurnAround::0-2047         1199     99.83%     99.83% # Reads before turning the bus around for writes
system.mem_ctrls0.rdPerTurnAround::2048-4095            1      0.08%     99.92% # Reads before turning the bus around for writes
system.mem_ctrls0.rdPerTurnAround::63488-65535            1      0.08%    100.00% # Reads before turning the bus around for writes
system.mem_ctrls0.rdPerTurnAround::total         1201                       # Reads before turning the bus around for writes
system.mem_ctrls0.wrPerTurnAround::samples         1201                       # Writes before turning the bus around for reads
system.mem_ctrls0.wrPerTurnAround::mean     16.607827                       # Writes before turning the bus around for reads
system.mem_ctrls0.wrPerTurnAround::gmean    16.583327                       # Writes before turning the bus around for reads
system.mem_ctrls0.wrPerTurnAround::stdev     0.917554                       # Writes before turning the bus around for reads
system.mem_ctrls0.wrPerTurnAround::16             820     68.28%     68.28% # Writes before turning the bus around for reads
system.mem_ctrls0.wrPerTurnAround::17              43      3.58%     71.86% # Writes before turning the bus around for reads
system.mem_ctrls0.wrPerTurnAround::18             329     27.39%     99.25% # Writes before turning the bus around for reads
system.mem_ctrls0.wrPerTurnAround::19               7      0.58%     99.83% # Writes before turning the bus around for reads
system.mem_ctrls0.wrPerTurnAround::20               2      0.17%    100.00% # Writes before turning the bus around for reads
system.mem_ctrls0.wrPerTurnAround::total         1201                       # Writes before turning the bus around for reads
system.mem_ctrls0.totQLat                  4766736250                       # Total ticks spent queuing
system.mem_ctrls0.totMemAccLat             7786405000                       # Total ticks spent from burst creation until serviced by the DRAM
system.mem_ctrls0.totBusLat                 805245000                       # Total ticks spent in databus transfers
system.mem_ctrls0.avgQLat                    29598.05                       # Average queueing delay per DRAM burst
system.mem_ctrls0.avgBusLat                   5000.00                       # Average bus latency per DRAM burst
system.mem_ctrls0.avgMemAccLat               48348.05                       # Average memory access latency per DRAM burst
system.mem_ctrls0.avgRdBW                      645.53                       # Average DRAM read bandwidth in MiByte/s
system.mem_ctrls0.avgWrBW                       79.95                       # Average achieved write bandwidth in MiByte/s
system.mem_ctrls0.avgRdBWSys                   645.57                       # Average system read bandwidth in MiByte/s
system.mem_ctrls0.avgWrBWSys                    80.02                       # Average system write bandwidth in MiByte/s
system.mem_ctrls0.peakBW                     12800.00                       # Theoretical peak bandwidth in MiByte/s
system.mem_ctrls0.busUtil                        5.67                       # Data bus utilization in percentage
system.mem_ctrls0.busUtilRead                    5.04                       # Data bus utilization in percentage for reads
system.mem_ctrls0.busUtilWrite                   0.62                       # Data bus utilization in percentage for writes
system.mem_ctrls0.avgRdQLen                      1.59                       # Average read queue length when enqueuing
system.mem_ctrls0.avgWrQLen                     13.09                       # Average write queue length when enqueuing
system.mem_ctrls0.readRowHits                   71244                       # Number of row buffer hits during reads
system.mem_ctrls0.writeRowHits                   4292                       # Number of row buffer hits during writes
system.mem_ctrls0.readRowHitRate                44.24                       # Row buffer hit rate for reads
system.mem_ctrls0.writeRowHitRate               21.50                       # Row buffer hit rate for writes
system.mem_ctrls0.avgGap                     88197.38                       # Average gap between requests
system.mem_ctrls0.pageHitRate                   41.73                       # Row buffer hit rate, read and write combined
system.mem_ctrls0_0.actEnergy               364811160                       # Energy for activate commands per rank (pJ)
system.mem_ctrls0_0.preEnergy               193886550                       # Energy for precharge commands per rank (pJ)
system.mem_ctrls0_0.readEnergy              565637940                       # Energy for read commands per rank (pJ)
system.mem_ctrls0_0.writeEnergy              49219380                       # Energy for write commands per rank (pJ)
system.mem_ctrls0_0.refreshEnergy        1264929120.000000                       # Energy for refresh commands per rank (pJ)
system.mem_ctrls0_0.actBackEnergy          1511602380                       # Energy for active background per rank (pJ)
system.mem_ctrls0_0.preBackEnergy            38849760                       # Energy for precharge background per rank (pJ)
system.mem_ctrls0_0.actPowerDownEnergy     5306472570                       # Energy for active power-down per rank (pJ)
system.mem_ctrls0_0.prePowerDownEnergy      290313120                       # Energy for precharge power-down per rank (pJ)
system.mem_ctrls0_0.selfRefreshEnergy        54535620                       # Energy for self refresh per rank (pJ)
system.mem_ctrls0_0.totalEnergy            9640551750                       # Total energy per rank (pJ)
system.mem_ctrls0_0.averagePower           603.786256                       # Core power per rank (mW)
system.mem_ctrls0_0.totalIdleTime         12550339750                       # Total Idle time Per DRAM Rank
system.mem_ctrls0_0.memoryStateTime::IDLE     34117500                       # Time in different power states
system.mem_ctrls0_0.memoryStateTime::REF    535326000                       # Time in different power states
system.mem_ctrls0_0.memoryStateTime::SREF    157058500                       # Time in different power states
system.mem_ctrls0_0.memoryStateTime::PRE_PDN    756024000                       # Time in different power states
system.mem_ctrls0_0.memoryStateTime::ACT   2847044750                       # Time in different power states
system.mem_ctrls0_0.memoryStateTime::ACT_PDN  11637257250                       # Time in different power states
system.mem_ctrls0_1.actEnergy               388166100                       # Energy for activate commands per rank (pJ)
system.mem_ctrls0_1.preEnergy               206296200                       # Energy for precharge commands per rank (pJ)
system.mem_ctrls0_1.readEnergy              584251920                       # Energy for read commands per rank (pJ)
system.mem_ctrls0_1.writeEnergy              54898740                       # Energy for write commands per rank (pJ)
system.mem_ctrls0_1.refreshEnergy        1248948480.000000                       # Energy for refresh commands per rank (pJ)
system.mem_ctrls0_1.actBackEnergy          1578967260                       # Energy for active background per rank (pJ)
system.mem_ctrls0_1.preBackEnergy            36233760                       # Energy for precharge background per rank (pJ)
system.mem_ctrls0_1.actPowerDownEnergy     5146899930                       # Energy for active power-down per rank (pJ)
system.mem_ctrls0_1.prePowerDownEnergy      288886560                       # Energy for precharge power-down per rank (pJ)
system.mem_ctrls0_1.selfRefreshEnergy       106638690                       # Energy for self refresh per rank (pJ)
system.mem_ctrls0_1.totalEnergy            9640372620                       # Total energy per rank (pJ)
system.mem_ctrls0_1.averagePower           603.775037                       # Core power per rank (mW)
system.mem_ctrls0_1.totalIdleTime         12408618250                       # Total Idle time Per DRAM Rank
system.mem_ctrls0_1.memoryStateTime::IDLE     27367250                       # Time in different power states
system.mem_ctrls0_1.memoryStateTime::REF    528560000                       # Time in different power states
system.mem_ctrls0_1.memoryStateTime::SREF    370039000                       # Time in different power states
system.mem_ctrls0_1.memoryStateTime::PRE_PDN    752070250                       # Time in different power states
system.mem_ctrls0_1.memoryStateTime::ACT   3001066250                       # Time in different power states
system.mem_ctrls0_1.memoryStateTime::ACT_PDN  11287725250                       # Time in different power states
system.mem_ctrls1.pwrStateResidencyTicks::UNDEFINED  15966828000                       # Cumulative time (in ticks) in various power states
system.mem_ctrls1.bytes_read::ruby.dir_cntrl1     10278080                       # Number of bytes read from this memory
system.mem_ctrls1.bytes_read::total          10278080                       # Number of bytes read from this memory
system.mem_ctrls1.bytes_written::ruby.dir_cntrl1      1266048                       # Number of bytes written to this memory
system.mem_ctrls1.bytes_written::total        1266048                       # Number of bytes written to this memory
system.mem_ctrls1.num_reads::ruby.dir_cntrl1       160595                       # Number of read requests responded to by this memory
system.mem_ctrls1.num_reads::total             160595                       # Number of read requests responded to by this memory
system.mem_ctrls1.num_writes::ruby.dir_cntrl1        19782                       # Number of write requests responded to by this memory
system.mem_ctrls1.num_writes::total             19782                       # Number of write requests responded to by this memory
system.mem_ctrls1.bw_read::ruby.dir_cntrl1    643714581                       # Total read bandwidth from this memory (bytes/s)
system.mem_ctrls1.bw_read::total            643714581                       # Total read bandwidth from this memory (bytes/s)
system.mem_ctrls1.bw_write::ruby.dir_cntrl1     79292393                       # Write bandwidth from this memory (bytes/s)
system.mem_ctrls1.bw_write::total            79292393                       # Write bandwidth from this memory (bytes/s)
system.mem_ctrls1.bw_total::ruby.dir_cntrl1    723006974                       # Total bandwidth to/from this memory (bytes/s)
system.mem_ctrls1.bw_total::total           723006974                       # Total bandwidth to/from this memory (bytes/s)
system.mem_ctrls1.readReqs                     160595                       # Number of read requests accepted
system.mem_ctrls1.avgNetLat                      0.00                       # Average network latency to DRAM controller
system.mem_ctrls1.writeReqs                     19782                       # Number of write requests accepted
system.mem_ctrls1.readBursts                   160595                       # Number of DRAM read bursts, including those serviced by the write queue
system.mem_ctrls1.writeBursts                   19782                       # Number of DRAM write bursts, including those merged in the write queue
system.mem_ctrls1.bytesReadDRAM              10277824                       # Total number of bytes read from DRAM
system.mem_ctrls1.bytesReadWrQ                    256                       # Total number of bytes read from write queue
system.mem_ctrls1.bytesWritten                1264576                       # Total number of bytes written to DRAM
system.mem_ctrls1.bytesReadSys               10278080                       # Total read bytes from the system interface side
system.mem_ctrls1.bytesWrittenSys             1266048                       # Total written bytes from the system interface side
system.mem_ctrls1.servicedByWrQ                     4                       # Number of DRAM read bursts serviced by the write queue
system.mem_ctrls1.mergedWrBursts                    0                       # Number of DRAM write bursts merged with an existing one
system.mem_ctrls1.neitherReadNorWriteReqs            0                       # Number of requests that are neither read nor write
system.mem_ctrls1.perBankRdBursts::0            10322                       # Per bank write bursts
system.mem_ctrls1.perBankRdBursts::1            10262                       # Per bank write bursts
system.mem_ctrls1.perBankRdBursts::2            10133                       # Per bank write bursts
system.mem_ctrls1.perBankRdBursts::3            10154                       # Per bank write bursts
system.mem_ctrls1.perBankRdBursts::4             9376                       # Per bank write bursts
system.mem_ctrls1.perBankRdBursts::5             9379                       # Per bank write bursts
system.mem_ctrls1.perBankRdBursts::6             9568                       # Per bank write bursts
system.mem_ctrls1.perBankRdBursts::7             9672                       # Per bank write bursts
system.mem_ctrls1.perBankRdBursts::8             9584                       # Per bank write bursts
system.mem_ctrls1.perBankRdBursts::9             9902                       # Per bank write bursts
system.mem_ctrls1.perBankRdBursts::10           10395                       # Per bank write bursts
system.mem_ctrls1.perBankRdBursts::11           10496                       # Per bank write bursts
system.mem_ctrls1.perBankRdBursts::12           10716                       # Per bank write bursts
system.mem_ctrls1.perBankRdBursts::13           10737                       # Per bank write bursts
system.mem_ctrls1.perBankRdBursts::14            9928                       # Per bank write bursts
system.mem_ctrls1.perBankRdBursts::15            9967                       # Per bank write bursts
system.mem_ctrls1.perBankWrBursts::0             1257                       # Per bank write bursts
system.mem_ctrls1.perBankWrBursts::1             1201                       # Per bank write bursts
system.mem_ctrls1.perBankWrBursts::2             1214                       # Per bank write bursts
system.mem_ctrls1.perBankWrBursts::3             1309                       # Per bank write bursts
system.mem_ctrls1.perBankWrBursts::4             1050                       # Per bank write bursts
system.mem_ctrls1.perBankWrBursts::5             1002                       # Per bank write bursts
system.mem_ctrls1.perBankWrBursts::6             1079                       # Per bank write bursts
system.mem_ctrls1.perBankWrBursts::7             1119                       # Per bank write bursts
system.mem_ctrls1.perBankWrBursts::8             1090                       # Per bank write bursts
system.mem_ctrls1.perBankWrBursts::9             1183                       # Per bank write bursts
system.mem_ctrls1.perBankWrBursts::10            1328                       # Per bank write bursts
system.mem_ctrls1.perBankWrBursts::11            1423                       # Per bank write bursts
system.mem_ctrls1.perBankWrBursts::12            1478                       # Per bank write bursts
system.mem_ctrls1.perBankWrBursts::13            1512                       # Per bank write bursts
system.mem_ctrls1.perBankWrBursts::14            1255                       # Per bank write bursts
system.mem_ctrls1.perBankWrBursts::15            1259                       # Per bank write bursts
system.mem_ctrls1.numRdRetry                        0                       # Number of times read queue was full causing retry
system.mem_ctrls1.numWrRetry                        0                       # Number of times write queue was full causing retry
system.mem_ctrls1.totGap                  15966006000                       # Total gap between requests
system.mem_ctrls1.readPktSize::0                    0                       # Read request sizes (log2)
system.mem_ctrls1.readPktSize::1                    0                       # Read request sizes (log2)
system.mem_ctrls1.readPktSize::2                    0                       # Read request sizes (log2)
system.mem_ctrls1.readPktSize::3                    0                       # Read request sizes (log2)
system.mem_ctrls1.readPktSize::4                    0                       # Read request sizes (log2)
system.mem_ctrls1.readPktSize::5                    0                       # Read request sizes (log2)
system.mem_ctrls1.readPktSize::6               160595                       # Read request sizes (log2)
system.mem_ctrls1.writePktSize::0                   0                       # Write request sizes (log2)
system.mem_ctrls1.writePktSize::1                   0                       # Write request sizes (log2)
system.mem_ctrls1.writePktSize::2                   0                       # Write request sizes (log2)
system.mem_ctrls1.writePktSize::3                   0                       # Write request sizes (log2)
system.mem_ctrls1.writePktSize::4                   0                       # Write request sizes (log2)
system.mem_ctrls1.writePktSize::5                   0                       # Write request sizes (log2)
system.mem_ctrls1.writePktSize::6               19782                       # Write request sizes (log2)
system.mem_ctrls1.rdQLenPdf::0                  77399                       # What read queue length does an incoming req see
system.mem_ctrls1.rdQLenPdf::1                  42485                       # What read queue length does an incoming req see
system.mem_ctrls1.rdQLenPdf::2                  22071                       # What read queue length does an incoming req see
system.mem_ctrls1.rdQLenPdf::3                  10731                       # What read queue length does an incoming req see
system.mem_ctrls1.rdQLenPdf::4                   4773                       # What read queue length does an incoming req see
system.mem_ctrls1.rdQLenPdf::5                   2067                       # What read queue length does an incoming req see
system.mem_ctrls1.rdQLenPdf::6                    744                       # What read queue length does an incoming req see
system.mem_ctrls1.rdQLenPdf::7                    236                       # What read queue length does an incoming req see
system.mem_ctrls1.rdQLenPdf::8                     60                       # What read queue length does an incoming req see
system.mem_ctrls1.rdQLenPdf::9                     17                       # What read queue length does an incoming req see
system.mem_ctrls1.rdQLenPdf::10                     7                       # What read queue length does an incoming req see
system.mem_ctrls1.rdQLenPdf::11                     1                       # What read queue length does an incoming req see
system.mem_ctrls1.rdQLenPdf::12                     0                       # What read queue length does an incoming req see
system.mem_ctrls1.rdQLenPdf::13                     0                       # What read queue length does an incoming req see
system.mem_ctrls1.rdQLenPdf::14                     0                       # What read queue length does an incoming req see
system.mem_ctrls1.rdQLenPdf::15                     0                       # What read queue length does an incoming req see
system.mem_ctrls1.rdQLenPdf::16                     0                       # What read queue length does an incoming req see
system.mem_ctrls1.rdQLenPdf::17                     0                       # What read queue length does an incoming req see
system.mem_ctrls1.rdQLenPdf::18                     0                       # What read queue length does an incoming req see
system.mem_ctrls1.rdQLenPdf::19                     0                       # What read queue length does an incoming req see
system.mem_ctrls1.rdQLenPdf::20                     0                       # What read queue length does an incoming req see
system.mem_ctrls1.rdQLenPdf::21                     0                       # What read queue length does an incoming req see
system.mem_ctrls1.rdQLenPdf::22                     0                       # What read queue length does an incoming req see
system.mem_ctrls1.rdQLenPdf::23                     0                       # What read queue length does an incoming req see
system.mem_ctrls1.rdQLenPdf::24                     0                       # What read queue length does an incoming req see
system.mem_ctrls1.rdQLenPdf::25                     0                       # What read queue length does an incoming req see
system.mem_ctrls1.rdQLenPdf::26                     0                       # What read queue length does an incoming req see
system.mem_ctrls1.rdQLenPdf::27                     0                       # What read queue length does an incoming req see
system.mem_ctrls1.rdQLenPdf::28                     0                       # What read queue length does an incoming req see
system.mem_ctrls1.rdQLenPdf::29                     0                       # What read queue length does an incoming req see
system.mem_ctrls1.rdQLenPdf::30                     0                       # What read queue length does an incoming req see
system.mem_ctrls1.rdQLenPdf::31                     0                       # What read queue length does an incoming req see
system.mem_ctrls1.wrQLenPdf::0                      1                       # What write queue length does an incoming req see
system.mem_ctrls1.wrQLenPdf::1                      1                       # What write queue length does an incoming req see
system.mem_ctrls1.wrQLenPdf::2                      1                       # What write queue length does an incoming req see
system.mem_ctrls1.wrQLenPdf::3                      1                       # What write queue length does an incoming req see
system.mem_ctrls1.wrQLenPdf::4                      1                       # What write queue length does an incoming req see
system.mem_ctrls1.wrQLenPdf::5                      1                       # What write queue length does an incoming req see
system.mem_ctrls1.wrQLenPdf::6                      1                       # What write queue length does an incoming req see
system.mem_ctrls1.wrQLenPdf::7                      1                       # What write queue length does an incoming req see
system.mem_ctrls1.wrQLenPdf::8                      1                       # What write queue length does an incoming req see
system.mem_ctrls1.wrQLenPdf::9                      1                       # What write queue length does an incoming req see
system.mem_ctrls1.wrQLenPdf::10                     1                       # What write queue length does an incoming req see
system.mem_ctrls1.wrQLenPdf::11                     1                       # What write queue length does an incoming req see
system.mem_ctrls1.wrQLenPdf::12                     1                       # What write queue length does an incoming req see
system.mem_ctrls1.wrQLenPdf::13                     1                       # What write queue length does an incoming req see
system.mem_ctrls1.wrQLenPdf::14                     1                       # What write queue length does an incoming req see
system.mem_ctrls1.wrQLenPdf::15                   295                       # What write queue length does an incoming req see
system.mem_ctrls1.wrQLenPdf::16                   374                       # What write queue length does an incoming req see
system.mem_ctrls1.wrQLenPdf::17                   814                       # What write queue length does an incoming req see
system.mem_ctrls1.wrQLenPdf::18                  1143                       # What write queue length does an incoming req see
system.mem_ctrls1.wrQLenPdf::19                  1229                       # What write queue length does an incoming req see
system.mem_ctrls1.wrQLenPdf::20                  1238                       # What write queue length does an incoming req see
system.mem_ctrls1.wrQLenPdf::21                  1229                       # What write queue length does an incoming req see
system.mem_ctrls1.wrQLenPdf::22                  1222                       # What write queue length does an incoming req see
system.mem_ctrls1.wrQLenPdf::23                  1227                       # What write queue length does an incoming req see
system.mem_ctrls1.wrQLenPdf::24                  1222                       # What write queue length does an incoming req see
system.mem_ctrls1.wrQLenPdf::25                  1220                       # What write queue length does an incoming req see
system.mem_ctrls1.wrQLenPdf::26                  1218                       # What write queue length does an incoming req see
system.mem_ctrls1.wrQLenPdf::27                  1219                       # What write queue length does an incoming req see
system.mem_ctrls1.wrQLenPdf::28                  1222                       # What write queue length does an incoming req see
system.mem_ctrls1.wrQLenPdf::29                  1211                       # What write queue length does an incoming req see
system.mem_ctrls1.wrQLenPdf::30                  1208                       # What write queue length does an incoming req see
system.mem_ctrls1.wrQLenPdf::31                  1216                       # What write queue length does an incoming req see
system.mem_ctrls1.wrQLenPdf::32                  1220                       # What write queue length does an incoming req see
system.mem_ctrls1.wrQLenPdf::33                    32                       # What write queue length does an incoming req see
system.mem_ctrls1.wrQLenPdf::34                     6                       # What write queue length does an incoming req see
system.mem_ctrls1.wrQLenPdf::35                     2                       # What write queue length does an incoming req see
system.mem_ctrls1.wrQLenPdf::36                     0                       # What write queue length does an incoming req see
system.mem_ctrls1.wrQLenPdf::37                     0                       # What write queue length does an incoming req see
system.mem_ctrls1.wrQLenPdf::38                     0                       # What write queue length does an incoming req see
system.mem_ctrls1.wrQLenPdf::39                     0                       # What write queue length does an incoming req see
system.mem_ctrls1.wrQLenPdf::40                     0                       # What write queue length does an incoming req see
system.mem_ctrls1.wrQLenPdf::41                     0                       # What write queue length does an incoming req see
system.mem_ctrls1.wrQLenPdf::42                     0                       # What write queue length does an incoming req see
system.mem_ctrls1.wrQLenPdf::43                     0                       # What write queue length does an incoming req see
system.mem_ctrls1.wrQLenPdf::44                     0                       # What write queue length does an incoming req see
system.mem_ctrls1.wrQLenPdf::45                     0                       # What write queue length does an incoming req see
system.mem_ctrls1.wrQLenPdf::46                     0                       # What write queue length does an incoming req see
system.mem_ctrls1.wrQLenPdf::47                     0                       # What write queue length does an incoming req see
system.mem_ctrls1.wrQLenPdf::48                     0                       # What write queue length does an incoming req see
system.mem_ctrls1.wrQLenPdf::49                     0                       # What write queue length does an incoming req see
system.mem_ctrls1.wrQLenPdf::50                     0                       # What write queue length does an incoming req see
system.mem_ctrls1.wrQLenPdf::51                     0                       # What write queue length does an incoming req see
system.mem_ctrls1.wrQLenPdf::52                     0                       # What write queue length does an incoming req see
system.mem_ctrls1.wrQLenPdf::53                     0                       # What write queue length does an incoming req see
system.mem_ctrls1.wrQLenPdf::54                     0                       # What write queue length does an incoming req see
system.mem_ctrls1.wrQLenPdf::55                     0                       # What write queue length does an incoming req see
system.mem_ctrls1.wrQLenPdf::56                     0                       # What write queue length does an incoming req see
system.mem_ctrls1.wrQLenPdf::57                     0                       # What write queue length does an incoming req see
system.mem_ctrls1.wrQLenPdf::58                     0                       # What write queue length does an incoming req see
system.mem_ctrls1.wrQLenPdf::59                     0                       # What write queue length does an incoming req see
system.mem_ctrls1.wrQLenPdf::60                     0                       # What write queue length does an incoming req see
system.mem_ctrls1.wrQLenPdf::61                     0                       # What write queue length does an incoming req see
system.mem_ctrls1.wrQLenPdf::62                     0                       # What write queue length does an incoming req see
system.mem_ctrls1.wrQLenPdf::63                     0                       # What write queue length does an incoming req see
system.mem_ctrls1.bytesPerActivate::samples       104890                       # Bytes accessed per row activation
system.mem_ctrls1.bytesPerActivate::mean   110.037411                       # Bytes accessed per row activation
system.mem_ctrls1.bytesPerActivate::gmean    86.485716                       # Bytes accessed per row activation
system.mem_ctrls1.bytesPerActivate::stdev   116.635818                       # Bytes accessed per row activation
system.mem_ctrls1.bytesPerActivate::0-127        76542     72.97%     72.97% # Bytes accessed per row activation
system.mem_ctrls1.bytesPerActivate::128-255        18747     17.87%     90.85% # Bytes accessed per row activation
system.mem_ctrls1.bytesPerActivate::256-383         4206      4.01%     94.86% # Bytes accessed per row activation
system.mem_ctrls1.bytesPerActivate::384-511         2315      2.21%     97.06% # Bytes accessed per row activation
system.mem_ctrls1.bytesPerActivate::512-639         1498      1.43%     98.49% # Bytes accessed per row activation
system.mem_ctrls1.bytesPerActivate::640-767         1037      0.99%     99.48% # Bytes accessed per row activation
system.mem_ctrls1.bytesPerActivate::768-895          225      0.21%     99.69% # Bytes accessed per row activation
system.mem_ctrls1.bytesPerActivate::896-1023          168      0.16%     99.86% # Bytes accessed per row activation
system.mem_ctrls1.bytesPerActivate::1024-1151          152      0.14%    100.00% # Bytes accessed per row activation
system.mem_ctrls1.bytesPerActivate::total       104890                       # Bytes accessed per row activation
system.mem_ctrls1.rdPerTurnAround::samples         1191                       # Reads before turning the bus around for writes
system.mem_ctrls1.rdPerTurnAround::mean    134.827876                       # Reads before turning the bus around for writes
system.mem_ctrls1.rdPerTurnAround::gmean    53.008124                       # Reads before turning the bus around for writes
system.mem_ctrls1.rdPerTurnAround::stdev  1877.889244                       # Reads before turning the bus around for writes
system.mem_ctrls1.rdPerTurnAround::0-2047         1189     99.83%     99.83% # Reads before turning the bus around for writes
system.mem_ctrls1.rdPerTurnAround::2048-4095            1      0.08%     99.92% # Reads before turning the bus around for writes
system.mem_ctrls1.rdPerTurnAround::63488-65535            1      0.08%    100.00% # Reads before turning the bus around for writes
system.mem_ctrls1.rdPerTurnAround::total         1191                       # Reads before turning the bus around for writes
system.mem_ctrls1.wrPerTurnAround::samples         1191                       # Writes before turning the bus around for reads
system.mem_ctrls1.wrPerTurnAround::mean     16.590260                       # Writes before turning the bus around for reads
system.mem_ctrls1.wrPerTurnAround::gmean    16.566178                       # Writes before turning the bus around for reads
system.mem_ctrls1.wrPerTurnAround::stdev     0.910281                       # Writes before turning the bus around for reads
system.mem_ctrls1.wrPerTurnAround::16             821     68.93%     68.93% # Writes before turning the bus around for reads
system.mem_ctrls1.wrPerTurnAround::17              50      4.20%     73.13% # Writes before turning the bus around for reads
system.mem_ctrls1.wrPerTurnAround::18             310     26.03%     99.16% # Writes before turning the bus around for reads
system.mem_ctrls1.wrPerTurnAround::19               7      0.59%     99.75% # Writes before turning the bus around for reads
system.mem_ctrls1.wrPerTurnAround::20               3      0.25%    100.00% # Writes before turning the bus around for reads
system.mem_ctrls1.wrPerTurnAround::total         1191                       # Writes before turning the bus around for reads
system.mem_ctrls1.totQLat                  4671368500                       # Total ticks spent queuing
system.mem_ctrls1.totMemAccLat             7682449750                       # Total ticks spent from burst creation until serviced by the DRAM
system.mem_ctrls1.totBusLat                 802955000                       # Total ticks spent in databus transfers
system.mem_ctrls1.avgQLat                    29088.61                       # Average queueing delay per DRAM burst
system.mem_ctrls1.avgBusLat                   5000.00                       # Average bus latency per DRAM burst
system.mem_ctrls1.avgMemAccLat               47838.61                       # Average memory access latency per DRAM burst
system.mem_ctrls1.avgRdBW                      643.70                       # Average DRAM read bandwidth in MiByte/s
system.mem_ctrls1.avgWrBW                       79.20                       # Average achieved write bandwidth in MiByte/s
system.mem_ctrls1.avgRdBWSys                   643.71                       # Average system read bandwidth in MiByte/s
system.mem_ctrls1.avgWrBWSys                    79.29                       # Average system write bandwidth in MiByte/s
system.mem_ctrls1.peakBW                     12800.00                       # Theoretical peak bandwidth in MiByte/s
system.mem_ctrls1.busUtil                        5.65                       # Data bus utilization in percentage
system.mem_ctrls1.busUtilRead                    5.03                       # Data bus utilization in percentage for reads
system.mem_ctrls1.busUtilWrite                   0.62                       # Data bus utilization in percentage for writes
system.mem_ctrls1.avgRdQLen                      1.58                       # Average read queue length when enqueuing
system.mem_ctrls1.avgWrQLen                     12.89                       # Average write queue length when enqueuing
system.mem_ctrls1.readRowHits                   71117                       # Number of row buffer hits during reads
system.mem_ctrls1.writeRowHits                   4339                       # Number of row buffer hits during writes
system.mem_ctrls1.readRowHitRate                44.28                       # Row buffer hit rate for reads
system.mem_ctrls1.writeRowHitRate               21.93                       # Row buffer hit rate for writes
system.mem_ctrls1.avgGap                     88514.64                       # Average gap between requests
system.mem_ctrls1.pageHitRate                   41.83                       # Row buffer hit rate, read and write combined
system.mem_ctrls1_0.actEnergy               361205460                       # Energy for activate commands per rank (pJ)
system.mem_ctrls1_0.preEnergy               191981460                       # Energy for precharge commands per rank (pJ)
system.mem_ctrls1_0.readEnergy              563103240                       # Energy for read commands per rank (pJ)
system.mem_ctrls1_0.writeEnergy              48185820                       # Energy for write commands per rank (pJ)
system.mem_ctrls1_0.refreshEnergy        1251407040.000000                       # Energy for refresh commands per rank (pJ)
system.mem_ctrls1_0.actBackEnergy          1507097100                       # Energy for active background per rank (pJ)
system.mem_ctrls1_0.preBackEnergy            32231040                       # Energy for precharge background per rank (pJ)
system.mem_ctrls1_0.actPowerDownEnergy     5308779360                       # Energy for active power-down per rank (pJ)
system.mem_ctrls1_0.prePowerDownEnergy      254136480                       # Energy for precharge power-down per rank (pJ)
system.mem_ctrls1_0.selfRefreshEnergy        78109515                       # Energy for self refresh per rank (pJ)
system.mem_ctrls1_0.totalEnergy            9596743155                       # Total energy per rank (pJ)
system.mem_ctrls1_0.averagePower           601.042530                       # Core power per rank (mW)
system.mem_ctrls1_0.totalIdleTime         12575956750                       # Total Idle time Per DRAM Rank
system.mem_ctrls1_0.memoryStateTime::IDLE     17597000                       # Time in different power states
system.mem_ctrls1_0.memoryStateTime::REF    529522000                       # Time in different power states
system.mem_ctrls1_0.memoryStateTime::SREF    272855500                       # Time in different power states
system.mem_ctrls1_0.memoryStateTime::PRE_PDN    661607250                       # Time in different power states
system.mem_ctrls1_0.memoryStateTime::ACT   2843385500                       # Time in different power states
system.mem_ctrls1_0.memoryStateTime::ACT_PDN  11641860750                       # Time in different power states
system.mem_ctrls1_1.actEnergy               387737700                       # Energy for activate commands per rank (pJ)
system.mem_ctrls1_1.preEnergy               206076090                       # Energy for precharge commands per rank (pJ)
system.mem_ctrls1_1.readEnergy              583516500                       # Energy for read commands per rank (pJ)
system.mem_ctrls1_1.writeEnergy              54956160                       # Energy for write commands per rank (pJ)
system.mem_ctrls1_1.refreshEnergy        1253865600.000000                       # Energy for refresh commands per rank (pJ)
system.mem_ctrls1_1.actBackEnergy          1571092710                       # Energy for active background per rank (pJ)
system.mem_ctrls1_1.preBackEnergy            33633120                       # Energy for precharge background per rank (pJ)
system.mem_ctrls1_1.actPowerDownEnergy     5152976130                       # Energy for active power-down per rank (pJ)
system.mem_ctrls1_1.prePowerDownEnergy      296483520                       # Energy for precharge power-down per rank (pJ)
system.mem_ctrls1_1.selfRefreshEnergy       108474195                       # Energy for self refresh per rank (pJ)
system.mem_ctrls1_1.totalEnergy            9649204935                       # Total energy per rank (pJ)
system.mem_ctrls1_1.averagePower           604.328204                       # Core power per rank (mW)
system.mem_ctrls1_1.totalIdleTime         12432959250                       # Total Idle time Per DRAM Rank
system.mem_ctrls1_1.memoryStateTime::IDLE     21532000                       # Time in different power states
system.mem_ctrls1_1.memoryStateTime::REF    530646000                       # Time in different power states
system.mem_ctrls1_1.memoryStateTime::SREF    360506750                       # Time in different power states
system.mem_ctrls1_1.memoryStateTime::PRE_PDN    771918750                       # Time in different power states
system.mem_ctrls1_1.memoryStateTime::ACT   2980983500                       # Time in different power states
system.mem_ctrls1_1.memoryStateTime::ACT_PDN  11301241000                       # Time in different power states
system.mem_ctrls2.pwrStateResidencyTicks::UNDEFINED  15966828000                       # Cumulative time (in ticks) in various power states
system.mem_ctrls2.bytes_read::ruby.dir_cntrl2     10293376                       # Number of bytes read from this memory
system.mem_ctrls2.bytes_read::total          10293376                       # Number of bytes read from this memory
system.mem_ctrls2.bytes_written::ruby.dir_cntrl2      1274688                       # Number of bytes written to this memory
system.mem_ctrls2.bytes_written::total        1274688                       # Number of bytes written to this memory
system.mem_ctrls2.num_reads::ruby.dir_cntrl2       160834                       # Number of read requests responded to by this memory
system.mem_ctrls2.num_reads::total             160834                       # Number of read requests responded to by this memory
system.mem_ctrls2.num_writes::ruby.dir_cntrl2        19917                       # Number of write requests responded to by this memory
system.mem_ctrls2.num_writes::total             19917                       # Number of write requests responded to by this memory
system.mem_ctrls2.bw_read::ruby.dir_cntrl2    644672567                       # Total read bandwidth from this memory (bytes/s)
system.mem_ctrls2.bw_read::total            644672567                       # Total read bandwidth from this memory (bytes/s)
system.mem_ctrls2.bw_write::ruby.dir_cntrl2     79833515                       # Write bandwidth from this memory (bytes/s)
system.mem_ctrls2.bw_write::total            79833515                       # Write bandwidth from this memory (bytes/s)
system.mem_ctrls2.bw_total::ruby.dir_cntrl2    724506082                       # Total bandwidth to/from this memory (bytes/s)
system.mem_ctrls2.bw_total::total           724506082                       # Total bandwidth to/from this memory (bytes/s)
system.mem_ctrls2.readReqs                     160834                       # Number of read requests accepted
system.mem_ctrls2.avgNetLat                      0.00                       # Average network latency to DRAM controller
system.mem_ctrls2.writeReqs                     19917                       # Number of write requests accepted
system.mem_ctrls2.readBursts                   160834                       # Number of DRAM read bursts, including those serviced by the write queue
system.mem_ctrls2.writeBursts                   19917                       # Number of DRAM write bursts, including those merged in the write queue
system.mem_ctrls2.bytesReadDRAM              10292928                       # Total number of bytes read from DRAM
system.mem_ctrls2.bytesReadWrQ                    448                       # Total number of bytes read from write queue
system.mem_ctrls2.bytesWritten                1273536                       # Total number of bytes written to DRAM
system.mem_ctrls2.bytesReadSys               10293376                       # Total read bytes from the system interface side
system.mem_ctrls2.bytesWrittenSys             1274688                       # Total written bytes from the system interface side
system.mem_ctrls2.servicedByWrQ                     7                       # Number of DRAM read bursts serviced by the write queue
system.mem_ctrls2.mergedWrBursts                    0                       # Number of DRAM write bursts merged with an existing one
system.mem_ctrls2.neitherReadNorWriteReqs            0                       # Number of requests that are neither read nor write
system.mem_ctrls2.perBankRdBursts::0            10310                       # Per bank write bursts
system.mem_ctrls2.perBankRdBursts::1            10222                       # Per bank write bursts
system.mem_ctrls2.perBankRdBursts::2            10172                       # Per bank write bursts
system.mem_ctrls2.perBankRdBursts::3            10132                       # Per bank write bursts
system.mem_ctrls2.perBankRdBursts::4             9397                       # Per bank write bursts
system.mem_ctrls2.perBankRdBursts::5             9365                       # Per bank write bursts
system.mem_ctrls2.perBankRdBursts::6             9587                       # Per bank write bursts
system.mem_ctrls2.perBankRdBursts::7             9720                       # Per bank write bursts
system.mem_ctrls2.perBankRdBursts::8             9595                       # Per bank write bursts
system.mem_ctrls2.perBankRdBursts::9             9889                       # Per bank write bursts
system.mem_ctrls2.perBankRdBursts::10           10408                       # Per bank write bursts
system.mem_ctrls2.perBankRdBursts::11           10463                       # Per bank write bursts
system.mem_ctrls2.perBankRdBursts::12           10736                       # Per bank write bursts
system.mem_ctrls2.perBankRdBursts::13           10869                       # Per bank write bursts
system.mem_ctrls2.perBankRdBursts::14            9978                       # Per bank write bursts
system.mem_ctrls2.perBankRdBursts::15            9984                       # Per bank write bursts
system.mem_ctrls2.perBankWrBursts::0             1266                       # Per bank write bursts
system.mem_ctrls2.perBankWrBursts::1             1204                       # Per bank write bursts
system.mem_ctrls2.perBankWrBursts::2             1241                       # Per bank write bursts
system.mem_ctrls2.perBankWrBursts::3             1291                       # Per bank write bursts
system.mem_ctrls2.perBankWrBursts::4             1075                       # Per bank write bursts
system.mem_ctrls2.perBankWrBursts::5             1003                       # Per bank write bursts
system.mem_ctrls2.perBankWrBursts::6             1076                       # Per bank write bursts
system.mem_ctrls2.perBankWrBursts::7             1138                       # Per bank write bursts
system.mem_ctrls2.perBankWrBursts::8             1112                       # Per bank write bursts
system.mem_ctrls2.perBankWrBursts::9             1152                       # Per bank write bursts
system.mem_ctrls2.perBankWrBursts::10            1344                       # Per bank write bursts
system.mem_ctrls2.perBankWrBursts::11            1389                       # Per bank write bursts
system.mem_ctrls2.perBankWrBursts::12            1507                       # Per bank write bursts
system.mem_ctrls2.perBankWrBursts::13            1577                       # Per bank write bursts
system.mem_ctrls2.perBankWrBursts::14            1265                       # Per bank write bursts
system.mem_ctrls2.perBankWrBursts::15            1259                       # Per bank write bursts
system.mem_ctrls2.numRdRetry                        0                       # Number of times read queue was full causing retry
system.mem_ctrls2.numWrRetry                        0                       # Number of times write queue was full causing retry
system.mem_ctrls2.totGap                  15965653000                       # Total gap between requests
system.mem_ctrls2.readPktSize::0                    0                       # Read request sizes (log2)
system.mem_ctrls2.readPktSize::1                    0                       # Read request sizes (log2)
system.mem_ctrls2.readPktSize::2                    0                       # Read request sizes (log2)
system.mem_ctrls2.readPktSize::3                    0                       # Read request sizes (log2)
system.mem_ctrls2.readPktSize::4                    0                       # Read request sizes (log2)
system.mem_ctrls2.readPktSize::5                    0                       # Read request sizes (log2)
system.mem_ctrls2.readPktSize::6               160834                       # Read request sizes (log2)
system.mem_ctrls2.writePktSize::0                   0                       # Write request sizes (log2)
system.mem_ctrls2.writePktSize::1                   0                       # Write request sizes (log2)
system.mem_ctrls2.writePktSize::2                   0                       # Write request sizes (log2)
system.mem_ctrls2.writePktSize::3                   0                       # Write request sizes (log2)
system.mem_ctrls2.writePktSize::4                   0                       # Write request sizes (log2)
system.mem_ctrls2.writePktSize::5                   0                       # Write request sizes (log2)
system.mem_ctrls2.writePktSize::6               19917                       # Write request sizes (log2)
system.mem_ctrls2.rdQLenPdf::0                  77543                       # What read queue length does an incoming req see
system.mem_ctrls2.rdQLenPdf::1                  42727                       # What read queue length does an incoming req see
system.mem_ctrls2.rdQLenPdf::2                  22170                       # What read queue length does an incoming req see
system.mem_ctrls2.rdQLenPdf::3                  10723                       # What read queue length does an incoming req see
system.mem_ctrls2.rdQLenPdf::4                   4720                       # What read queue length does an incoming req see
system.mem_ctrls2.rdQLenPdf::5                   1906                       # What read queue length does an incoming req see
system.mem_ctrls2.rdQLenPdf::6                    700                       # What read queue length does an incoming req see
system.mem_ctrls2.rdQLenPdf::7                    239                       # What read queue length does an incoming req see
system.mem_ctrls2.rdQLenPdf::8                     74                       # What read queue length does an incoming req see
system.mem_ctrls2.rdQLenPdf::9                     21                       # What read queue length does an incoming req see
system.mem_ctrls2.rdQLenPdf::10                     2                       # What read queue length does an incoming req see
system.mem_ctrls2.rdQLenPdf::11                     1                       # What read queue length does an incoming req see
system.mem_ctrls2.rdQLenPdf::12                     1                       # What read queue length does an incoming req see
system.mem_ctrls2.rdQLenPdf::13                     0                       # What read queue length does an incoming req see
system.mem_ctrls2.rdQLenPdf::14                     0                       # What read queue length does an incoming req see
system.mem_ctrls2.rdQLenPdf::15                     0                       # What read queue length does an incoming req see
system.mem_ctrls2.rdQLenPdf::16                     0                       # What read queue length does an incoming req see
system.mem_ctrls2.rdQLenPdf::17                     0                       # What read queue length does an incoming req see
system.mem_ctrls2.rdQLenPdf::18                     0                       # What read queue length does an incoming req see
system.mem_ctrls2.rdQLenPdf::19                     0                       # What read queue length does an incoming req see
system.mem_ctrls2.rdQLenPdf::20                     0                       # What read queue length does an incoming req see
system.mem_ctrls2.rdQLenPdf::21                     0                       # What read queue length does an incoming req see
system.mem_ctrls2.rdQLenPdf::22                     0                       # What read queue length does an incoming req see
system.mem_ctrls2.rdQLenPdf::23                     0                       # What read queue length does an incoming req see
system.mem_ctrls2.rdQLenPdf::24                     0                       # What read queue length does an incoming req see
system.mem_ctrls2.rdQLenPdf::25                     0                       # What read queue length does an incoming req see
system.mem_ctrls2.rdQLenPdf::26                     0                       # What read queue length does an incoming req see
system.mem_ctrls2.rdQLenPdf::27                     0                       # What read queue length does an incoming req see
system.mem_ctrls2.rdQLenPdf::28                     0                       # What read queue length does an incoming req see
system.mem_ctrls2.rdQLenPdf::29                     0                       # What read queue length does an incoming req see
system.mem_ctrls2.rdQLenPdf::30                     0                       # What read queue length does an incoming req see
system.mem_ctrls2.rdQLenPdf::31                     0                       # What read queue length does an incoming req see
system.mem_ctrls2.wrQLenPdf::0                      1                       # What write queue length does an incoming req see
system.mem_ctrls2.wrQLenPdf::1                      1                       # What write queue length does an incoming req see
system.mem_ctrls2.wrQLenPdf::2                      1                       # What write queue length does an incoming req see
system.mem_ctrls2.wrQLenPdf::3                      1                       # What write queue length does an incoming req see
system.mem_ctrls2.wrQLenPdf::4                      1                       # What write queue length does an incoming req see
system.mem_ctrls2.wrQLenPdf::5                      1                       # What write queue length does an incoming req see
system.mem_ctrls2.wrQLenPdf::6                      1                       # What write queue length does an incoming req see
system.mem_ctrls2.wrQLenPdf::7                      1                       # What write queue length does an incoming req see
system.mem_ctrls2.wrQLenPdf::8                      1                       # What write queue length does an incoming req see
system.mem_ctrls2.wrQLenPdf::9                      1                       # What write queue length does an incoming req see
system.mem_ctrls2.wrQLenPdf::10                     1                       # What write queue length does an incoming req see
system.mem_ctrls2.wrQLenPdf::11                     1                       # What write queue length does an incoming req see
system.mem_ctrls2.wrQLenPdf::12                     1                       # What write queue length does an incoming req see
system.mem_ctrls2.wrQLenPdf::13                     1                       # What write queue length does an incoming req see
system.mem_ctrls2.wrQLenPdf::14                     1                       # What write queue length does an incoming req see
system.mem_ctrls2.wrQLenPdf::15                   307                       # What write queue length does an incoming req see
system.mem_ctrls2.wrQLenPdf::16                   367                       # What write queue length does an incoming req see
system.mem_ctrls2.wrQLenPdf::17                   807                       # What write queue length does an incoming req see
system.mem_ctrls2.wrQLenPdf::18                  1133                       # What write queue length does an incoming req see
system.mem_ctrls2.wrQLenPdf::19                  1219                       # What write queue length does an incoming req see
system.mem_ctrls2.wrQLenPdf::20                  1247                       # What write queue length does an incoming req see
[...]
system.ruby.L2Cache_Controller.SS.L2_Replacement_clean::total        10357                      
system.ruby.L2Cache_Controller.M.L1_GET_INSTR |          14     25.00%     25.00% |           0      0.00%     25.00% |           0      0.00%     25.00% |           0      0.00%     25.00% |           0      0.00%     25.00% |           0      0.00%     25.00% |           0      0.00%     25.00% |           0      0.00%     25.00% |          14     25.00%     50.00% |          14     25.00%     75.00% |           0      0.00%     75.00% |           0      0.00%     75.00% |           0      0.00%     75.00% |           0      0.00%     75.00% |          14     25.00%    100.00% |           0      0.00%    100.00%
system.ruby.L2Cache_Controller.M.L1_GET_INSTR::total           56                      
system.ruby.L2Cache_Controller.M.L1_GETS |        9582      6.21%      6.21% |        9655      6.26%     12.48% |        9489      6.15%     18.63% |        9714      6.30%     24.93% |        9412      6.10%     31.04% |        9191      5.96%     37.00% |        9432      6.12%     43.11% |        9585      6.22%     49.33% |        9598      6.22%     55.55% |        9428      6.11%     61.67% |        9596      6.22%     67.89% |       10361      6.72%     74.61% |       10023      6.50%     81.11% |       10111      6.56%     87.67% |        9932      6.44%     94.11% |        9078      5.89%    100.00%
system.ruby.L2Cache_Controller.M.L1_GETS::total       154187                      
system.ruby.L2Cache_Controller.M.L1_GETX |        1256      6.21%      6.21% |        1342      6.64%     12.85% |        1337      6.61%     19.47% |        1248      6.17%     25.64% |        1294      6.40%     32.05% |        1207      5.97%     38.02% |        1175      5.81%     43.83% |        1347      6.66%     50.49% |        1243      6.15%     56.64% |        1303      6.45%     63.09% |        1270      6.28%     69.37% |        1233      6.10%     75.47% |        1232      6.10%     81.57% |        1146      5.67%     87.24% |        1265      6.26%     93.50% |        1314      6.50%    100.00%
system.ruby.L2Cache_Controller.M.L1_GETX::total        20212                      
system.ruby.L2Cache_Controller.M.L2_Replacement |        4981      6.32%      6.32% |        4896      6.21%     12.52% |        4934      6.26%     18.78% |        4950      6.28%     25.06% |        4870      6.18%     31.23% |        4919      6.24%     37.47% |        4884      6.19%     43.66% |        4919      6.24%     49.90% |        5004      6.35%     56.24% |        4773      6.05%     62.30% |        4924      6.24%     68.54% |        4917      6.23%     74.78% |        4950      6.28%     81.05% |        5024      6.37%     87.42% |        5015      6.36%     93.78% |        4904      6.22%    100.00%
system.ruby.L2Cache_Controller.M.L2_Replacement::total        78864                      
system.ruby.L2Cache_Controller.M.L2_Replacement_clean |        3148      6.23%      6.23% |        3064      6.06%     12.29% |        3011      5.96%     18.25% |        3156      6.25%     24.50% |        3043      6.02%     30.52% |        3146      6.23%     36.74% |        3133      6.20%     42.94% |        3232      6.40%     49.34% |        3211      6.35%     55.69% |        3119      6.17%     61.86% |        3169      6.27%     68.13% |        3223      6.38%     74.51% |        3260      6.45%     80.96% |        3233      6.40%     87.36% |        3170      6.27%     93.63% |        3218      6.37%    100.00%
system.ruby.L2Cache_Controller.M.L2_Replacement_clean::total        50536                      
system.ruby.L2Cache_Controller.MT.L1_GETS |          70      3.97%      3.97% |          70      3.97%      7.95% |          98      5.56%     13.51% |          98      5.56%     19.07% |          98      5.56%     24.63% |         140      7.95%     32.58% |         140      7.95%     40.52% |         140      7.95%     48.47% |         138      7.83%     56.30% |         138      7.83%     64.13% |         134      7.60%     71.74% |         134      7.60%     79.34% |         112      6.36%     85.70% |         112      6.36%     92.05% |          70      3.97%     96.03% |          70      3.97%    100.00%
system.ruby.L2Cache_Controller.MT.L1_GETS::total         1762                      
system.ruby.L2Cache_Controller.MT.L1_GETX |           0      0.00%      0.00% |           0      0.00%      0.00% |           0      0.00%      0.00% |           0      0.00%      0.00% |           0      0.00%      0.00% |           0      0.00%      0.00% |           0      0.00%      0.00% |           0      0.00%      0.00% |           1     12.50%     12.50% |           1     12.50%     25.00% |           3     37.50%     62.50% |           3     37.50%    100.00% |           0      0.00%    100.00% |           0      0.00%    100.00% |           0      0.00%    100.00% |           0      0.00%    100.00%
system.ruby.L2Cache_Controller.MT.L1_GETX::total            8                      
system.ruby.L2Cache_Controller.MT.L1_PUTX |       48822      6.25%      6.25% |       48808      6.25%     12.49% |       48486      6.20%     18.70% |       48960      6.26%     24.96% |       48427      6.20%     31.16% |       48316      6.18%     37.34% |       48547      6.21%     43.55% |       48956      6.26%     49.81% |       48962      6.26%     56.08% |       48489      6.20%     62.28% |       48804      6.24%     68.53% |       49564      6.34%     74.87% |       49426      6.32%     81.19% |       49412      6.32%     87.52% |       49177      6.29%     93.81% |       48393      6.19%    100.00%
system.ruby.L2Cache_Controller.MT.L1_PUTX::total       781549                      
system.ruby.L2Cache_Controller.MT.L2_Replacement |           8      7.69%      7.69% |           5      4.81%     12.50% |          10      9.62%     22.12% |          12     11.54%     33.65% |           8      7.69%     41.35% |           6      5.77%     47.12% |           7      6.73%     53.85% |           7      6.73%     60.58% |           8      7.69%     68.27% |           2      1.92%     70.19% |           9      8.65%     78.85% |           6      5.77%     84.62% |           6      5.77%     90.38% |           4      3.85%     94.23% |           3      2.88%     97.12% |           3      2.88%    100.00%
system.ruby.L2Cache_Controller.MT.L2_Replacement::total          104                      
system.ruby.L2Cache_Controller.MT.L2_Replacement_clean |          25      4.89%      4.89% |          38      7.44%     12.33% |          24      4.70%     17.03% |          25      4.89%     21.92% |          30      5.87%     27.79% |          36      7.05%     34.83% |          30      5.87%     40.70% |          34      6.65%     47.36% |          31      6.07%     53.42% |          37      7.24%     60.67% |          32      6.26%     66.93% |          24      4.70%     71.62% |          35      6.85%     78.47% |          41      8.02%     86.50% |          36      7.05%     93.54% |          33      6.46%    100.00%
system.ruby.L2Cache_Controller.MT.L2_Replacement_clean::total          511                      
system.ruby.L2Cache_Controller.M_I.L1_GETX |           0      0.00%      0.00% |           0      0.00%      0.00% |           0      0.00%      0.00% |           1    100.00%    100.00% |           0      0.00%    100.00% |           0      0.00%    100.00% |           0      0.00%    100.00% |           0      0.00%    100.00% |           0      0.00%    100.00% |           0      0.00%    100.00% |           0      0.00%    100.00% |           0      0.00%    100.00% |           0      0.00%    100.00% |           0      0.00%    100.00% |           0      0.00%    100.00% |           0      0.00%    100.00%
system.ruby.L2Cache_Controller.M_I.L1_GETX::total            1                      
system.ruby.L2Cache_Controller.M_I.Mem_Ack |        8821      6.28%      6.28% |        8686      6.19%     12.47% |        8690      6.19%     18.66% |        8766      6.24%     24.90% |        8619      6.14%     31.04% |        8812      6.28%     37.31% |        8722      6.21%     43.52% |        8843      6.30%     49.82% |        8956      6.38%     56.20% |        8445      6.01%     62.21% |        8713      6.21%     68.42% |        8804      6.27%     74.69% |        8868      6.32%     81.00% |        8925      6.36%     87.36% |        8956      6.38%     93.74% |        8792      6.26%    100.00%
system.ruby.L2Cache_Controller.M_I.Mem_Ack::total       140418                      
system.ruby.L2Cache_Controller.MT_I.WB_Data |           2      4.55%      4.55% |           4      9.09%     13.64% |           5     11.36%     25.00% |           5     11.36%     36.36% |           3      6.82%     43.18% |           4      9.09%     52.27% |           3      6.82%     59.09% |           3      6.82%     65.91% |           3      6.82%     72.73% |           1      2.27%     75.00% |           2      4.55%     79.55% |           3      6.82%     86.36% |           2      4.55%     90.91% |           1      2.27%     93.18% |           1      2.27%     95.45% |           2      4.55%    100.00%
system.ruby.L2Cache_Controller.MT_I.WB_Data::total           44                      
system.ruby.L2Cache_Controller.MT_I.Ack_all |           6     10.00%     10.00% |           1      1.67%     11.67% |           5      8.33%     20.00% |           7     11.67%     31.67% |           5      8.33%     40.00% |           2      3.33%     43.33% |           4      6.67%     50.00% |           4      6.67%     56.67% |           5      8.33%     65.00% |           1      1.67%     66.67% |           7     11.67%     78.33% |           3      5.00%     83.33% |           4      6.67%     90.00% |           3      5.00%     95.00% |           2      3.33%     98.33% |           1      1.67%    100.00%
system.ruby.L2Cache_Controller.MT_I.Ack_all::total           60                      
system.ruby.L2Cache_Controller.MCT_I.WB_Data |          25      5.10%      5.10% |          35      7.14%     12.24% |          24      4.90%     17.14% |          25      5.10%     22.24% |          28      5.71%     27.96% |          34      6.94%     34.90% |          29      5.92%     40.82% |          32      6.53%     47.35% |          29      5.92%     53.27% |          37      7.55%     60.82% |          30      6.12%     66.94% |          23      4.69%     71.63% |          32      6.53%     78.16% |          39      7.96%     86.12% |          35      7.14%     93.27% |          33      6.73%    100.00%
system.ruby.L2Cache_Controller.MCT_I.WB_Data::total          490                      
system.ruby.L2Cache_Controller.MCT_I.Ack_all |           0      0.00%      0.00% |           3     14.29%     14.29% |           0      0.00%     14.29% |           0      0.00%     14.29% |           2      9.52%     23.81% |           2      9.52%     33.33% |           1      4.76%     38.10% |           2      9.52%     47.62% |           2      9.52%     57.14% |           0      0.00%     57.14% |           2      9.52%     66.67% |           1      4.76%     71.43% |           3     14.29%     85.71% |           2      9.52%     95.24% |           1      4.76%    100.00% |           0      0.00%    100.00%
system.ruby.L2Cache_Controller.MCT_I.Ack_all::total           21                      
system.ruby.L2Cache_Controller.I_I.Ack_all |         656      6.33%      6.33% |         682      6.58%     12.92% |         709      6.85%     19.76% |         620      5.99%     25.75% |         665      6.42%     32.17% |         700      6.76%     38.93% |         665      6.42%     45.35% |         647      6.25%     51.60% |         697      6.73%     58.33% |         513      4.95%     63.28% |         572      5.52%     68.80% |         632      6.10%     74.91% |         614      5.93%     80.83% |         622      6.01%     86.84% |         731      7.06%     93.90% |         632      6.10%    100.00%
system.ruby.L2Cache_Controller.I_I.Ack_all::total        10357                      
system.ruby.L2Cache_Controller.S_I.Ack   |           3      6.52%      6.52% |           1      2.17%      8.70% |           2      4.35%     13.04% |           3      6.52%     19.57% |           3      6.52%     26.09% |           5     10.87%     36.96% |           3      6.52%     43.48% |           4      8.70%     52.17% |           5     10.87%     63.04% |           1      2.17%     65.22% |           7     15.22%     80.43% |           2      4.35%     84.78% |           3      6.52%     91.30% |           1      2.17%     93.48% |           1      2.17%     95.65% |           2      4.35%    100.00%
system.ruby.L2Cache_Controller.S_I.Ack::total           46                      
system.ruby.L2Cache_Controller.S_I.Ack_all |           3      6.52%      6.52% |           1      2.17%      8.70% |           2      4.35%     13.04% |           3      6.52%     19.57% |           3      6.52%     26.09% |           5     10.87%     36.96% |           3      6.52%     43.48% |           4      8.70%     52.17% |           5     10.87%     63.04% |           1      2.17%     65.22% |           7     15.22%     80.43% |           2      4.35%     84.78% |           3      6.52%     91.30% |           1      2.17%     93.48% |           1      2.17%     95.65% |           2      4.35%    100.00%
system.ruby.L2Cache_Controller.S_I.Ack_all::total           46                      
system.ruby.L2Cache_Controller.ISS.Mem_Data |       29342      6.26%      6.26% |       29087      6.21%     12.47% |       28899      6.17%     18.64% |       29299      6.25%     24.89% |       29028      6.20%     31.09% |       29241      6.24%     37.33% |       29264      6.25%     43.57% |       29339      6.26%     49.84% |       29479      6.29%     56.13% |       29163      6.22%     62.35% |       29304      6.25%     68.61% |       29361      6.27%     74.87% |       29561      6.31%     81.18% |       29509      6.30%     87.48% |       29317      6.26%     93.74% |       29335      6.26%    100.00%
system.ruby.L2Cache_Controller.ISS.Mem_Data::total       468528                      
system.ruby.L2Cache_Controller.IS.Mem_Data |        1369      6.42%      6.42% |        1365      6.41%     12.83% |        1504      7.06%     19.89% |        1308      6.14%     26.03% |        1353      6.35%     32.37% |        1351      6.34%     38.71% |        1282      6.02%     44.73% |        1300      6.10%     50.83% |        1368      6.42%     57.25% |        1167      5.48%     62.73% |        1252      5.88%     68.60% |        1274      5.98%     74.58% |        1233      5.79%     80.37% |        1308      6.14%     86.50% |        1529      7.18%     93.68% |        1347      6.32%    100.00%
system.ruby.L2Cache_Controller.IS.Mem_Data::total        21310                      
system.ruby.L2Cache_Controller.IM.Mem_Data |        9566      6.23%      6.23% |        9648      6.28%     12.51% |        9683      6.30%     18.81% |        9637      6.27%     25.08% |        9628      6.27%     31.35% |        9629      6.27%     37.62% |        9628      6.27%     43.88% |        9634      6.27%     50.15% |        9583      6.24%     56.39% |        9544      6.21%     62.60% |        9585      6.24%     68.84% |        9561      6.22%     75.07% |        9547      6.21%     81.28% |        9583      6.24%     87.52% |        9587      6.24%     93.76% |        9588      6.24%    100.00%
system.ruby.L2Cache_Controller.IM.Mem_Data::total       153631                      
system.ruby.L2Cache_Controller.SS_MB.Exclusive_Unblock |          42      3.93%      3.93% |          42      3.93%      7.85% |          70      6.54%     14.39% |          56      5.23%     19.63% |          56      5.23%     24.86% |          84      7.85%     32.71% |          84      7.85%     40.56% |          84      7.85%     48.41% |          83      7.76%     56.17% |          83      7.76%     63.93% |          81      7.57%     71.50% |          81      7.57%     79.07% |          70      6.54%     85.61% |          70      6.54%     92.15% |          42      3.93%     96.07% |          42      3.93%    100.00%
system.ruby.L2Cache_Controller.SS_MB.Exclusive_Unblock::total         1070                      
system.ruby.L2Cache_Controller.MT_MB.Exclusive_Unblock |       49746      6.25%      6.25% |       49732      6.24%     12.49% |       49408      6.20%     18.69% |       49898      6.26%     24.96% |       49362      6.20%     31.15% |       49268      6.19%     37.34% |       49499      6.21%     43.55% |       49905      6.27%     49.82% |       49904      6.26%     56.08% |       49439      6.21%     62.29% |       49758      6.25%     68.53% |       50519      6.34%     74.88% |       50363      6.32%     81.20% |       50349      6.32%     87.52% |       50101      6.29%     93.81% |       49315      6.19%    100.00%
system.ruby.L2Cache_Controller.MT_MB.Exclusive_Unblock::total       796566                      
system.ruby.L2Cache_Controller.MT_IIB.WB_Data |          70      4.01%      4.01% |          70      4.01%      8.02% |          96      5.50%     13.52% |          98      5.62%     19.14% |          95      5.44%     24.58% |         138      7.91%     32.49% |         139      7.97%     40.46% |         137      7.85%     48.31% |         137      7.85%     56.16% |         136      7.79%     63.95% |         134      7.68%     71.63% |         134      7.68%     79.31% |         110      6.30%     85.62% |         112      6.42%     92.03% |          70      4.01%     96.05% |          69      3.95%    100.00%
system.ruby.L2Cache_Controller.MT_IIB.WB_Data::total         1745                      
system.ruby.L2Cache_Controller.MT_IIB.Unblock |           0      0.00%      0.00% |           0      0.00%      0.00% |           2     11.76%     11.76% |           0      0.00%     11.76% |           3     17.65%     29.41% |           2     11.76%     41.18% |           1      5.88%     47.06% |           3     17.65%     64.71% |           1      5.88%     70.59% |           2     11.76%     82.35% |           0      0.00%     82.35% |           0      0.00%     82.35% |           2     11.76%     94.12% |           0      0.00%     94.12% |           0      0.00%     94.12% |           1      5.88%    100.00%
system.ruby.L2Cache_Controller.MT_IIB.Unblock::total           17                      
system.ruby.L2Cache_Controller.MT_IB.WB_Data |           0      0.00%      0.00% |           0      0.00%      0.00% |           2     11.76%     11.76% |           0      0.00%     11.76% |           3     17.65%     29.41% |           2     11.76%     41.18% |           1      5.88%     47.06% |           3     17.65%     64.71% |           1      5.88%     70.59% |           2     11.76%     82.35% |           0      0.00%     82.35% |           0      0.00%     82.35% |           2     11.76%     94.12% |           0      0.00%     94.12% |           0      0.00%     94.12% |           1      5.88%    100.00%
system.ruby.L2Cache_Controller.MT_IB.WB_Data::total           17                      
system.ruby.L2Cache_Controller.MT_SB.Unblock |          70      4.01%      4.01% |          70      4.01%      8.02% |          96      5.50%     13.52% |          98      5.62%     19.14% |          95      5.44%     24.58% |         138      7.91%     32.49% |         139      7.97%     40.46% |         137      7.85%     48.31% |         137      7.85%     56.16% |         136      7.79%     63.95% |         134      7.68%     71.63% |         134      7.68%     79.31% |         110      6.30%     85.62% |         112      6.42%     92.03% |          70      4.01%     96.05% |          69      3.95%    100.00%
system.ruby.L2Cache_Controller.MT_SB.Unblock::total         1745                      

---------- End Simulation Statistics   ----------
