
---------- Begin Simulation Statistics ----------
sim_seconds                                  0.016015                       # Number of seconds simulated
sim_ticks                                 16015183500                       # Number of ticks simulated
final_tick                                16015183500                       # Number of ticks from beginning of simulation (restored from checkpoints and never reset)
sim_freq                                 1000000000000                       # Frequency of simulated ticks
host_inst_rate                                  55515                       # Simulator instruction rate (inst/s)
host_op_rate                                    96328                       # Simulator op (including micro ops) rate (op/s)
host_tick_rate                               19449204                       # Simulator tick rate (ticks/s)
host_mem_usage                                2040140                       # Number of bytes of host memory used
host_seconds                                   823.44                       # Real time elapsed on the host
sim_insts                                    45713023                       # Number of instructions simulated
sim_ops                                      79320229                       # Number of ops (including micro ops) simulated
system.voltage_domain.voltage                       1                       # Voltage in Volts
system.clk_domain.clock                          1000                       # Clock period in ticks
system.mem_ctrls0.pwrStateResidencyTicks::UNDEFINED  16015183500                       # Cumulative time (in ticks) in various power states
system.mem_ctrls0.bytes_read::ruby.dir_cntrl0      9923456                       # Number of bytes read from this memory
system.mem_ctrls0.bytes_read::total           9923456                       # Number of bytes read from this memory
system.mem_ctrls0.bytes_written::ruby.dir_cntrl0       980800                       # Number of bytes written to this memory
system.mem_ctrls0.bytes_written::total         980800                       # Number of bytes written to this memory
system.mem_ctrls0.num_reads::ruby.dir_cntrl0       155054                       # Number of read requests responded to by this memory
system.mem_ctrls0.num_reads::total             155054                       # Number of read requests responded to by this memory
system.mem_ctrls0.num_writes::ruby.dir_cntrl0        15325                       # Number of write requests responded to by this memory
system.mem_ctrls0.num_writes::total             15325                       # Number of write requests responded to by this memory
system.mem_ctrls0.bw_read::ruby.dir_cntrl0    619627992                       # Total read bandwidth from this memory (bytes/s)
system.mem_ctrls0.bw_read::total            619627992                       # Total read bandwidth from this memory (bytes/s)
system.mem_ctrls0.bw_write::ruby.dir_cntrl0     61241883                       # Write bandwidth from this memory (bytes/s)
system.mem_ctrls0.bw_write::total            61241883                       # Write bandwidth from this memory (bytes/s)
system.mem_ctrls0.bw_total::ruby.dir_cntrl0    680869876                       # Total bandwidth to/from this memory (bytes/s)
system.mem_ctrls0.bw_total::total           680869876                       # Total bandwidth to/from this memory (bytes/s)
system.mem_ctrls0.readReqs                     155054                       # Number of read requests accepted
system.mem_ctrls0.avgNetLat                      0.00                       # Average network latency to DRAM controller
system.mem_ctrls0.writeReqs                     15325                       # Number of write requests accepted
system.mem_ctrls0.readBursts                   155054                       # Number of DRAM read bursts, including those serviced by the write queue
system.mem_ctrls0.writeBursts                   15325                       # Number of DRAM write bursts, including those merged in the write queue
system.mem_ctrls0.bytesReadDRAM               9922752                       # Total number of bytes read from DRAM
system.mem_ctrls0.bytesReadWrQ                    704                       # Total number of bytes read from write queue
system.mem_ctrls0.bytesWritten                 979008                       # Total number of bytes written to DRAM
system.mem_ctrls0.bytesReadSys                9923456                       # Total read bytes from the system interface side
system.mem_ctrls0.bytesWrittenSys              980800                       # Total written bytes from the system interface side
system.mem_ctrls0.servicedByWrQ                    11                       # Number of DRAM read bursts serviced by the write queue
system.mem_ctrls0.mergedWrBursts                    0                       # Number of DRAM write bursts merged with an existing one
system.mem_ctrls0.neitherReadNorWriteReqs            0                       # Number of requests that are neither read nor write
system.mem_ctrls0.perBankRdBursts::0            10110                       # Per bank write bursts
system.mem_ctrls0.perBankRdBursts::1             9698                       # Per bank write bursts
system.mem_ctrls0.perBankRdBursts::2             9342                       # Per bank write bursts
system.mem_ctrls0.perBankRdBursts::3             9223                       # Per bank write bursts
system.mem_ctrls0.perBankRdBursts::4             9149                       # Per bank write bursts
system.mem_ctrls0.perBankRdBursts::5             9089                       # Per bank write bursts
system.mem_ctrls0.perBankRdBursts::6             9226                       # Per bank write bursts
system.mem_ctrls0.perBankRdBursts::7             9346                       # Per bank write bursts
system.mem_ctrls0.perBankRdBursts::8             9188                       # Per bank write bursts
system.mem_ctrls0.perBankRdBursts::9             9531                       # Per bank write bursts
system.mem_ctrls0.perBankRdBursts::10            9916                       # Per bank write bursts
system.mem_ctrls0.perBankRdBursts::11           10045                       # Per bank write bursts
system.mem_ctrls0.perBankRdBursts::12           10589                       # Per bank write bursts
system.mem_ctrls0.perBankRdBursts::13           10796                       # Per bank write bursts
system.mem_ctrls0.perBankRdBursts::14            9891                       # Per bank write bursts
system.mem_ctrls0.perBankRdBursts::15            9904                       # Per bank write bursts
system.mem_ctrls0.perBankWrBursts::0             1109                       # Per bank write bursts
system.mem_ctrls0.perBankWrBursts::1              967                       # Per bank write bursts
system.mem_ctrls0.perBankWrBursts::2              881                       # Per bank write bursts
system.mem_ctrls0.perBankWrBursts::3              865                       # Per bank write bursts
system.mem_ctrls0.perBankWrBursts::4              788                       # Per bank write bursts
system.mem_ctrls0.perBankWrBursts::5              807                       # Per bank write bursts
system.mem_ctrls0.perBankWrBursts::6              807                       # Per bank write bursts
system.mem_ctrls0.perBankWrBursts::7              802                       # Per bank write bursts
system.mem_ctrls0.perBankWrBursts::8              802                       # Per bank write bursts
system.mem_ctrls0.perBankWrBursts::9              943                       # Per bank write bursts
system.mem_ctrls0.perBankWrBursts::10            1037                       # Per bank write bursts
system.mem_ctrls0.perBankWrBursts::11            1039                       # Per bank write bursts
system.mem_ctrls0.perBankWrBursts::12            1197                       # Per bank write bursts
system.mem_ctrls0.perBankWrBursts::13            1214                       # Per bank write bursts
system.mem_ctrls0.perBankWrBursts::14             994                       # Per bank write bursts
system.mem_ctrls0.perBankWrBursts::15            1045                       # Per bank write bursts
system.mem_ctrls0.numRdRetry                        0                       # Number of times read queue was full causing retry
system.mem_ctrls0.numWrRetry                        0                       # Number of times write queue was full causing retry
system.mem_ctrls0.totGap                  16013834500                       # Total gap between requests
system.mem_ctrls0.readPktSize::0                    0                       # Read request sizes (log2)
system.mem_ctrls0.readPktSize::1                    0                       # Read request sizes (log2)
system.mem_ctrls0.readPktSize::2                    0                       # Read request sizes (log2)
system.mem_ctrls0.readPktSize::3                    0                       # Read request sizes (log2)
system.mem_ctrls0.readPktSize::4                    0                       # Read request sizes (log2)
system.mem_ctrls0.readPktSize::5                    0                       # Read request sizes (log2)
system.mem_ctrls0.readPktSize::6               155054                       # Read request sizes (log2)
system.mem_ctrls0.writePktSize::0                   0                       # Write request sizes (log2)
system.mem_ctrls0.writePktSize::1                   0                       # Write request sizes (log2)
system.mem_ctrls0.writePktSize::2                   0                       # Write request sizes (log2)
system.mem_ctrls0.writePktSize::3                   0                       # Write request sizes (log2)
system.mem_ctrls0.writePktSize::4                   0                       # Write request sizes (log2)
system.mem_ctrls0.writePktSize::5                   0                       # Write request sizes (log2)
system.mem_ctrls0.writePktSize::6               15325                       # Write request sizes (log2)
system.mem_ctrls0.rdQLenPdf::0                  74744                       # What read queue length does an incoming req see
system.mem_ctrls0.rdQLenPdf::1                  41051                       # What read queue length does an incoming req see
system.mem_ctrls0.rdQLenPdf::2                  21257                       # What read queue length does an incoming req see
system.mem_ctrls0.rdQLenPdf::3                  10061                       # What read queue length does an incoming req see
system.mem_ctrls0.rdQLenPdf::4                   4548                       # What read queue length does an incoming req see
system.mem_ctrls0.rdQLenPdf::5                   1959                       # What read queue length does an incoming req see
system.mem_ctrls0.rdQLenPdf::6                    899                       # What read queue length does an incoming req see
system.mem_ctrls0.rdQLenPdf::7                    367                       # What read queue length does an incoming req see
system.mem_ctrls0.rdQLenPdf::8                    126                       # What read queue length does an incoming req see
system.mem_ctrls0.rdQLenPdf::9                     24                       # What read queue length does an incoming req see
system.mem_ctrls0.rdQLenPdf::10                     6                       # What read queue length does an incoming req see
system.mem_ctrls0.rdQLenPdf::11                     1                       # What read queue length does an incoming req see
system.mem_ctrls0.rdQLenPdf::12                     0                       # What read queue length does an incoming req see
system.mem_ctrls0.rdQLenPdf::13                     0                       # What read queue length does an incoming req see
system.mem_ctrls0.rdQLenPdf::14                     0                       # What read queue length does an incoming req see
system.mem_ctrls0.rdQLenPdf::15                     0                       # What read queue length does an incoming req see
system.mem_ctrls0.rdQLenPdf::16                     0                       # What read queue length does an incoming req see
system.mem_ctrls0.rdQLenPdf::17                     0                       # What read queue length does an incoming req see
system.mem_ctrls0.rdQLenPdf::18                     0                       # What read queue length does an incoming req see
system.mem_ctrls0.rdQLenPdf::19                     0                       # What read queue length does an incoming req see
system.mem_ctrls0.rdQLenPdf::20                     0                       # What read queue length does an incoming req see
system.mem_ctrls0.rdQLenPdf::21                     0                       # What read queue length does an incoming req see
system.mem_ctrls0.rdQLenPdf::22                     0                       # What read queue length does an incoming req see
system.mem_ctrls0.rdQLenPdf::23                     0                       # What read queue length does an incoming req see
system.mem_ctrls0.rdQLenPdf::24                     0                       # What read queue length does an incoming req see
system.mem_ctrls0.rdQLenPdf::25                     0                       # What read queue length does an incoming req see
system.mem_ctrls0.rdQLenPdf::26                     0                       # What read queue length does an incoming req see
system.mem_ctrls0.rdQLenPdf::27                     0                       # What read queue length does an incoming req see
system.mem_ctrls0.rdQLenPdf::28                     0                       # What read queue length does an incoming req see
system.mem_ctrls0.rdQLenPdf::29                     0                       # What read queue length does an incoming req see
system.mem_ctrls0.rdQLenPdf::30                     0                       # What read queue length does an incoming req see
system.mem_ctrls0.rdQLenPdf::31                     0                       # What read queue length does an incoming req see
system.mem_ctrls0.wrQLenPdf::0                      1                       # What write queue length does an incoming req see
system.mem_ctrls0.wrQLenPdf::1                      1                       # What write queue length does an incoming req see
system.mem_ctrls0.wrQLenPdf::2                      1                       # What write queue length does an incoming req see
system.mem_ctrls0.wrQLenPdf::3                      1                       # What write queue length does an incoming req see
system.mem_ctrls0.wrQLenPdf::4                      1                       # What write queue length does an incoming req see
system.mem_ctrls0.wrQLenPdf::5                      1                       # What write queue length does an incoming req see
system.mem_ctrls0.wrQLenPdf::6                      1                       # What write queue length does an incoming req see
system.mem_ctrls0.wrQLenPdf::7                      1                       # What write queue length does an incoming req see
system.mem_ctrls0.wrQLenPdf::8                      1                       # What write queue length does an incoming req see
system.mem_ctrls0.wrQLenPdf::9                      1                       # What write queue length does an incoming req see
system.mem_ctrls0.wrQLenPdf::10                     1                       # What write queue length does an incoming req see
system.mem_ctrls0.wrQLenPdf::11                     1                       # What write queue length does an incoming req see
system.mem_ctrls0.wrQLenPdf::12                     1                       # What write queue length does an incoming req see
system.mem_ctrls0.wrQLenPdf::13                     1                       # What write queue length does an incoming req see
system.mem_ctrls0.wrQLenPdf::14                     1                       # What write queue length does an incoming req see
system.mem_ctrls0.wrQLenPdf::15                   248                       # What write queue length does an incoming req see
system.mem_ctrls0.wrQLenPdf::16                   292                       # What write queue length does an incoming req see
system.mem_ctrls0.wrQLenPdf::17                   660                       # What write queue length does an incoming req see
system.mem_ctrls0.wrQLenPdf::18                   899                       # What write queue length does an incoming req see
system.mem_ctrls0.wrQLenPdf::19                   942                       # What write queue length does an incoming req see
system.mem_ctrls0.wrQLenPdf::20                   952                       # What write queue length does an incoming req see
system.mem_ctrls0.wrQLenPdf::21                   940                       # What write queue length does an incoming req see
system.mem_ctrls0.wrQLenPdf::22                   948                       # What write queue length does an incoming req see
system.mem_ctrls0.wrQLenPdf::23                   940                       # What write queue length does an incoming req see
system.mem_ctrls0.wrQLenPdf::24                   947                       # What write queue length does an incoming req see
system.mem_ctrls0.wrQLenPdf::25                   938                       # What write queue length does an incoming req see
system.mem_ctrls0.wrQLenPdf::26                   940                       # What write queue length does an incoming req see
system.mem_ctrls0.wrQLenPdf::27                   933                       # What write queue length does an incoming req see
system.mem_ctrls0.wrQLenPdf::28                   939                       # What write queue length does an incoming req see
system.mem_ctrls0.wrQLenPdf::29                   936                       # What write queue length does an incoming req see
system.mem_ctrls0.wrQLenPdf::30                   943                       # What write queue length does an incoming req see
system.mem_ctrls0.wrQLenPdf::31                   938                       # What write queue length does an incoming req see
system.mem_ctrls0.wrQLenPdf::32                   933                       # What write queue length does an incoming req see
system.mem_ctrls0.wrQLenPdf::33                    35                       # What write queue length does an incoming req see
system.mem_ctrls0.wrQLenPdf::34                     6                       # What write queue length does an incoming req see
system.mem_ctrls0.wrQLenPdf::35                     1                       # What write queue length does an incoming req see
system.mem_ctrls0.wrQLenPdf::36                     0                       # What write queue length does an incoming req see
system.mem_ctrls0.wrQLenPdf::37                     0                       # What write queue length does an incoming req see
system.mem_ctrls0.wrQLenPdf::38                     0                       # What write queue length does an incoming req see
system.mem_ctrls0.wrQLenPdf::39                     0                       # What write queue length does an incoming req see
system.mem_ctrls0.wrQLenPdf::40                     0                       # What write queue length does an incoming req see
system.mem_ctrls0.wrQLenPdf::41                     0                       # What write queue length does an incoming req see
system.mem_ctrls0.wrQLenPdf::42                     0                       # What write queue length does an incoming req see
system.mem_ctrls0.wrQLenPdf::43                     0                       # What write queue length does an incoming req see
system.mem_ctrls0.wrQLenPdf::44                     0                       # What write queue length does an incoming req see
system.mem_ctrls0.wrQLenPdf::45                     0                       # What write queue length does an incoming req see
system.mem_ctrls0.wrQLenPdf::46                     0                       # What write queue length does an incoming req see
system.mem_ctrls0.wrQLenPdf::47                     0                       # What write queue length does an incoming req see
system.mem_ctrls0.wrQLenPdf::48                     0                       # What write queue length does an incoming req see
system.mem_ctrls0.wrQLenPdf::49                     0                       # What write queue length does an incoming req see
system.mem_ctrls0.wrQLenPdf::50                     0                       # What write queue length does an incoming req see
system.mem_ctrls0.wrQLenPdf::51                     0                       # What write queue length does an incoming req see
system.mem_ctrls0.wrQLenPdf::52                     0                       # What write queue length does an incoming req see
system.mem_ctrls0.wrQLenPdf::53                     0                       # What write queue length does an incoming req see
system.mem_ctrls0.wrQLenPdf::54                     0                       # What write queue length does an incoming req see
system.mem_ctrls0.wrQLenPdf::55                     0                       # What write queue length does an incoming req see
system.mem_ctrls0.wrQLenPdf::56                     0                       # What write queue length does an incoming req see
system.mem_ctrls0.wrQLenPdf::57                     0                       # What write queue length does an incoming req see
system.mem_ctrls0.wrQLenPdf::58                     0                       # What write queue length does an incoming req see
system.mem_ctrls0.wrQLenPdf::59                     0                       # What write queue length does an incoming req see
system.mem_ctrls0.wrQLenPdf::60                     0                       # What write queue length does an incoming req see
system.mem_ctrls0.wrQLenPdf::61                     0                       # What write queue length does an incoming req see
system.mem_ctrls0.wrQLenPdf::62                     0                       # What write queue length does an incoming req see
system.mem_ctrls0.wrQLenPdf::63                     0                       # What write queue length does an incoming req see
system.mem_ctrls0.bytesPerActivate::samples       100747                       # Bytes accessed per row activation
system.mem_ctrls0.bytesPerActivate::mean   108.201654                       # Bytes accessed per row activation
system.mem_ctrls0.bytesPerActivate::gmean    85.591181                       # Bytes accessed per row activation
system.mem_ctrls0.bytesPerActivate::stdev   116.703135                       # Bytes accessed per row activation
system.mem_ctrls0.bytesPerActivate::0-127        73522     72.98%     72.98% # Bytes accessed per row activation
system.mem_ctrls0.bytesPerActivate::128-255        18984     18.84%     91.82% # Bytes accessed per row activation
system.mem_ctrls0.bytesPerActivate::256-383         3388      3.36%     95.18% # Bytes accessed per row activation
system.mem_ctrls0.bytesPerActivate::384-511         2006      1.99%     97.17% # Bytes accessed per row activation
system.mem_ctrls0.bytesPerActivate::512-639         1267      1.26%     98.43% # Bytes accessed per row activation
system.mem_ctrls0.bytesPerActivate::640-767          952      0.94%     99.38% # Bytes accessed per row activation
system.mem_ctrls0.bytesPerActivate::768-895          212      0.21%     99.59% # Bytes accessed per row activation
system.mem_ctrls0.bytesPerActivate::896-1023          208      0.21%     99.79% # Bytes accessed per row activation
system.mem_ctrls0.bytesPerActivate::1024-1151          208      0.21%    100.00% # Bytes accessed per row activation
system.mem_ctrls0.bytesPerActivate::total       100747                       # Bytes accessed per row activation
system.mem_ctrls0.rdPerTurnAround::samples          921                       # Reads before turning the bus around for writes
system.mem_ctrls0.rdPerTurnAround::mean    168.315961                       # Reads before turning the bus around for writes
system.mem_ctrls0.rdPerTurnAround::gmean    63.477267                       # Reads before turning the bus around for writes
system.mem_ctrls0.rdPerTurnAround::stdev  2184.956806                       # Reads before turning the bus around for writes
system.mem_ctrls0.rdPerTurnAround::0-4095          920     99.89%     99.89% # Reads before turning the bus around for writes
system.mem_ctrls0.rdPerTurnAround::65536-69631            1      0.11%    100.00% # Reads before turning the bus around for writes
system.mem_ctrls0.rdPerTurnAround::total          921                       # Reads before turning the bus around for writes
system.mem_ctrls0.wrPerTurnAround::samples          921                       # Writes before turning the bus around for reads
system.mem_ctrls0.wrPerTurnAround::mean     16.609121                       # Writes before turning the bus around for reads
system.mem_ctrls0.wrPerTurnAround::gmean    16.584725                       # Writes before turning the bus around for reads
system.mem_ctrls0.wrPerTurnAround::stdev     0.915615                       # Writes before turning the bus around for reads
system.mem_ctrls0.wrPerTurnAround::16             626     67.97%     67.97% # Writes before turning the bus around for reads
system.mem_ctrls0.wrPerTurnAround::17              38      4.13%     72.10% # Writes before turning the bus around for reads
system.mem_ctrls0.wrPerTurnAround::18             249     27.04%     99.13% # Writes before turning the bus around for reads
system.mem_ctrls0.wrPerTurnAround::19               7      0.76%     99.89% # Writes before turning the bus around for reads
system.mem_ctrls0.wrPerTurnAround::20               1      0.11%    100.00% # Writes before turning the bus around for reads
system.mem_ctrls0.wrPerTurnAround::total          921                       # Writes before turning the bus around for reads
system.mem_ctrls0.totQLat                  4762156250                       # Total ticks spent queuing
system.mem_ctrls0.totMemAccLat             7669212500                       # Total ticks spent from burst creation until serviced by the DRAM
system.mem_ctrls0.totBusLat                 775215000                       # Total ticks spent in databus transfers
system.mem_ctrls0.avgQLat                    30715.07                       # Average queueing delay per DRAM burst
system.mem_ctrls0.avgBusLat                   5000.00                       # Average bus latency per DRAM burst
system.mem_ctrls0.avgMemAccLat               49465.07                       # Average memory access latency per DRAM burst
system.mem_ctrls0.avgRdBW                      619.58                       # Average DRAM read bandwidth in MiByte/s
system.mem_ctrls0.avgWrBW                       61.13                       # Average achieved write bandwidth in MiByte/s
system.mem_ctrls0.avgRdBWSys                   619.63                       # Average system read bandwidth in MiByte/s
system.mem_ctrls0.avgWrBWSys                    61.24                       # Average system write bandwidth in MiByte/s
system.mem_ctrls0.peakBW                     12800.00                       # Theoretical peak bandwidth in MiByte/s
system.mem_ctrls0.busUtil                        5.32                       # Data bus utilization in percentage
system.mem_ctrls0.busUtilRead                    4.84                       # Data bus utilization in percentage for reads
system.mem_ctrls0.busUtilWrite                   0.48                       # Data bus utilization in percentage for writes
system.mem_ctrls0.avgRdQLen                      1.56                       # Average read queue length when enqueuing
system.mem_ctrls0.avgWrQLen                     13.02                       # Average write queue length when enqueuing
system.mem_ctrls0.readRowHits                   66175                       # Number of row buffer hits during reads
system.mem_ctrls0.writeRowHits                   3413                       # Number of row buffer hits during writes
system.mem_ctrls0.readRowHitRate                42.68                       # Row buffer hit rate for reads
system.mem_ctrls0.writeRowHitRate               22.27                       # Row buffer hit rate for writes
system.mem_ctrls0.avgGap                     93989.49                       # Average gap between requests
system.mem_ctrls0.pageHitRate                   40.85                       # Row buffer hit rate, read and write combined
system.mem_ctrls0_0.actEnergy               344033760                       # Energy for activate commands per rank (pJ)
system.mem_ctrls0_0.preEnergy               182846895                       # Energy for precharge commands per rank (pJ)
system.mem_ctrls0_0.readEnergy              536806620                       # Energy for read commands per rank (pJ)
system.mem_ctrls0_0.writeEnergy              36675720                       # Energy for write commands per rank (pJ)
system.mem_ctrls0_0.refreshEnergy        1223748240.000000                       # Energy for refresh commands per rank (pJ)
system.mem_ctrls0_0.actBackEnergy          1459837260                       # Energy for active background per rank (pJ)
system.mem_ctrls0_0.preBackEnergy            35221440                       # Energy for precharge background per rank (pJ)
system.mem_ctrls0_0.actPowerDownEnergy     5059281240                       # Energy for active power-down per rank (pJ)
system.mem_ctrls0_0.prePowerDownEnergy      332666400                       # Energy for precharge power-down per rank (pJ)
system.mem_ctrls0_0.selfRefreshEnergy       202073625                       # Energy for self refresh per rank (pJ)
system.mem_ctrls0_0.totalEnergy            9413559030                       # Total energy per rank (pJ)
system.mem_ctrls0_0.averagePower           587.789636                       # Core power per rank (mW)
system.mem_ctrls0_0.totalIdleTime         12719729250                       # Total Idle time Per DRAM Rank
system.mem_ctrls0_0.memoryStateTime::IDLE     27221000                       # Time in different power states
system.mem_ctrls0_0.memoryStateTime::REF    518002000                       # Time in different power states
system.mem_ctrls0_0.memoryStateTime::SREF    760013500                       # Time in different power states
system.mem_ctrls0_0.memoryStateTime::PRE_PDN    866368250                       # Time in different power states
system.mem_ctrls0_0.memoryStateTime::ACT   2748403500                       # Time in different power states
system.mem_ctrls0_0.memoryStateTime::ACT_PDN  11095175250                       # Time in different power states
system.mem_ctrls0_1.actEnergy               375335520                       # Energy for activate commands per rank (pJ)
system.mem_ctrls0_1.preEnergy               199487970                       # Energy for precharge commands per rank (pJ)
system.mem_ctrls0_1.readEnergy              570200400                       # Energy for read commands per rank (pJ)
system.mem_ctrls0_1.writeEnergy              43174620                       # Energy for write commands per rank (pJ)
system.mem_ctrls0_1.refreshEnergy        1218216480.000000                       # Energy for refresh commands per rank (pJ)
system.mem_ctrls0_1.actBackEnergy          1531835100                       # Energy for active background per rank (pJ)
system.mem_ctrls0_1.preBackEnergy            30427200                       # Energy for precharge background per rank (pJ)
system.mem_ctrls0_1.actPowerDownEnergy     5111408880                       # Energy for active power-down per rank (pJ)
system.mem_ctrls0_1.prePowerDownEnergy      239076000                       # Energy for precharge power-down per rank (pJ)
system.mem_ctrls0_1.selfRefreshEnergy       191549535                       # Energy for self refresh per rank (pJ)
system.mem_ctrls0_1.totalEnergy            9511018245                       # Total energy per rank (pJ)
system.mem_ctrls0_1.averagePower           593.875062                       # Core power per rank (mW)
system.mem_ctrls0_1.totalIdleTime         12575230000                       # Total Idle time Per DRAM Rank
system.mem_ctrls0_1.memoryStateTime::IDLE     16541000                       # Time in different power states
system.mem_ctrls0_1.memoryStateTime::REF    515542000                       # Time in different power states
system.mem_ctrls0_1.memoryStateTime::SREF    744157250                       # Time in different power states
system.mem_ctrls0_1.memoryStateTime::PRE_PDN    622519000                       # Time in different power states
system.mem_ctrls0_1.memoryStateTime::ACT   2906643250                       # Time in different power states
system.mem_ctrls0_1.memoryStateTime::ACT_PDN  11209781000                       # Time in different power states
system.mem_ctrls1.pwrStateResidencyTicks::UNDEFINED  16015183500                       # Cumulative time (in ticks) in various power states
system.mem_ctrls1.bytes_read::ruby.dir_cntrl1      9900288                       # Number of bytes read from this memory
system.mem_ctrls1.bytes_read::total           9900288                       # Number of bytes read from this memory
system.mem_ctrls1.bytes_written::ruby.dir_cntrl1       976128                       # Number of bytes written to this memory
system.mem_ctrls1.bytes_written::total         976128                       # Number of bytes written to this memory
system.mem_ctrls1.num_reads::ruby.dir_cntrl1       154692                       # Number of read requests responded to by this memory
system.mem_ctrls1.num_reads::total             154692                       # Number of read requests responded to by this memory
system.mem_ctrls1.num_writes::ruby.dir_cntrl1        15252                       # Number of write requests responded to by this memory
system.mem_ctrls1.num_writes::total             15252                       # Number of write requests responded to by this memory
system.mem_ctrls1.bw_read::ruby.dir_cntrl1    618181365                       # Total read bandwidth from this memory (bytes/s)
system.mem_ctrls1.bw_read::total            618181365                       # Total read bandwidth from this memory (bytes/s)
system.mem_ctrls1.bw_write::ruby.dir_cntrl1     60950160                       # Write bandwidth from this memory (bytes/s)
system.mem_ctrls1.bw_write::total            60950160                       # Write bandwidth from this memory (bytes/s)
system.mem_ctrls1.bw_total::ruby.dir_cntrl1    679131525                       # Total bandwidth to/from this memory (bytes/s)
system.mem_ctrls1.bw_total::total           679131525                       # Total bandwidth to/from this memory (bytes/s)
system.mem_ctrls1.readReqs                     154692                       # Number of read requests accepted
system.mem_ctrls1.avgNetLat                      0.00                       # Average network latency to DRAM controller
system.mem_ctrls1.writeReqs                     15252                       # Number of write requests accepted
system.mem_ctrls1.readBursts                   154692                       # Number of DRAM read bursts, including those serviced by the write queue
system.mem_ctrls1.writeBursts                   15252                       # Number of DRAM write bursts, including those merged in the write queue
system.mem_ctrls1.bytesReadDRAM               9899712                       # Total number of bytes read from DRAM
system.mem_ctrls1.bytesReadWrQ                    576                       # Total number of bytes read from write queue
system.mem_ctrls1.bytesWritten                 975104                       # Total number of bytes written to DRAM
system.mem_ctrls1.bytesReadSys                9900288                       # Total read bytes from the system interface side
system.mem_ctrls1.bytesWrittenSys              976128                       # Total written bytes from the system interface side
system.mem_ctrls1.servicedByWrQ                     9                       # Number of DRAM read bursts serviced by the write queue
system.mem_ctrls1.mergedWrBursts                    0                       # Number of DRAM write bursts merged with an existing one
system.mem_ctrls1.neitherReadNorWriteReqs            0                       # Number of requests that are neither read nor write
system.mem_ctrls1.perBankRdBursts::0             9999                       # Per bank write bursts
system.mem_ctrls1.perBankRdBursts::1             9635                       # Per bank write bursts
system.mem_ctrls1.perBankRdBursts::2             9324                       # Per bank write bursts
system.mem_ctrls1.perBankRdBursts::3             9207                       # Per bank write bursts
system.mem_ctrls1.perBankRdBursts::4             9114                       # Per bank write bursts
system.mem_ctrls1.perBankRdBursts::5             9127                       # Per bank write bursts
system.mem_ctrls1.perBankRdBursts::6             9233                       # Per bank write bursts
system.mem_ctrls1.perBankRdBursts::7             9329                       # Per bank write bursts
system.mem_ctrls1.perBankRdBursts::8             9131                       # Per bank write bursts
system.mem_ctrls1.perBankRdBursts::9             9496                       # Per bank write bursts
system.mem_ctrls1.perBankRdBursts::10            9873                       # Per bank write bursts
system.mem_ctrls1.perBankRdBursts::11           10004                       # Per bank write bursts
system.mem_ctrls1.perBankRdBursts::12           10587                       # Per bank write bursts
system.mem_ctrls1.perBankRdBursts::13           10825                       # Per bank write bursts
system.mem_ctrls1.perBankRdBursts::14            9928                       # Per bank write bursts
system.mem_ctrls1.perBankRdBursts::15            9871                       # Per bank write bursts
system.mem_ctrls1.perBankWrBursts::0             1039                       # Per bank write bursts
system.mem_ctrls1.perBankWrBursts::1              952                       # Per bank write bursts
system.mem_ctrls1.perBankWrBursts::2              863                       # Per bank write bursts
system.mem_ctrls1.perBankWrBursts::3              846                       # Per bank write bursts
system.mem_ctrls1.perBankWrBursts::4              812                       # Per bank write bursts
system.mem_ctrls1.perBankWrBursts::5              828                       # Per bank write bursts
system.mem_ctrls1.perBankWrBursts::6              808                       # Per bank write bursts
system.mem_ctrls1.perBankWrBursts::7              792                       # Per bank write bursts
system.mem_ctrls1.perBankWrBursts::8              786                       # Per bank write bursts
system.mem_ctrls1.perBankWrBursts::9              937                       # Per bank write bursts
system.mem_ctrls1.perBankWrBursts::10            1031                       # Per bank write bursts
system.mem_ctrls1.perBankWrBursts::11            1007                       # Per bank write bursts
system.mem_ctrls1.perBankWrBursts::12            1223                       # Per bank write bursts
system.mem_ctrls1.perBankWrBursts::13            1267                       # Per bank write bursts
system.mem_ctrls1.perBankWrBursts::14            1030                       # Per bank write bursts
system.mem_ctrls1.perBankWrBursts::15            1015                       # Per bank write bursts
system.mem_ctrls1.numRdRetry                        0                       # Number of times read queue was full causing retry
system.mem_ctrls1.numWrRetry                        0                       # Number of times write queue was full causing retry
system.mem_ctrls1.totGap                  16014605000                       # Total gap between requests
system.mem_ctrls1.readPktSize::0                    0                       # Read request sizes (log2)
system.mem_ctrls1.readPktSize::1                    0                       # Read request sizes (log2)
system.mem_ctrls1.readPktSize::2                    0                       # Read request sizes (log2)
system.mem_ctrls1.readPktSize::3                    0                       # Read request sizes (log2)
system.mem_ctrls1.readPktSize::4                    0                       # Read request sizes (log2)
system.mem_ctrls1.readPktSize::5                    0                       # Read request sizes (log2)
system.mem_ctrls1.readPktSize::6               154692                       # Read request sizes (log2)
system.mem_ctrls1.writePktSize::0                   0                       # Write request sizes (log2)
system.mem_ctrls1.writePktSize::1                   0                       # Write request sizes (log2)
system.mem_ctrls1.writePktSize::2                   0                       # Write request sizes (log2)
system.mem_ctrls1.writePktSize::3                   0                       # Write request sizes (log2)
system.mem_ctrls1.writePktSize::4                   0                       # Write request sizes (log2)
system.mem_ctrls1.writePktSize::5                   0                       # Write request sizes (log2)
system.mem_ctrls1.writePktSize::6               15252                       # Write request sizes (log2)
system.mem_ctrls1.rdQLenPdf::0                  75188                       # What read queue length does an incoming req see
system.mem_ctrls1.rdQLenPdf::1                  41279                       # What read queue length does an incoming req see
system.mem_ctrls1.rdQLenPdf::2                  21064                       # What read queue length does an incoming req see
system.mem_ctrls1.rdQLenPdf::3                   9838                       # What read queue length does an incoming req see
system.mem_ctrls1.rdQLenPdf::4                   4342                       # What read queue length does an incoming req see
system.mem_ctrls1.rdQLenPdf::5                   1836                       # What read queue length does an incoming req see
system.mem_ctrls1.rdQLenPdf::6                    743                       # What read queue length does an incoming req see
system.mem_ctrls1.rdQLenPdf::7                    283                       # What read queue length does an incoming req see
system.mem_ctrls1.rdQLenPdf::8                     87                       # What read queue length does an incoming req see
system.mem_ctrls1.rdQLenPdf::9                     19                       # What read queue length does an incoming req see
system.mem_ctrls1.rdQLenPdf::10                     4                       # What read queue length does an incoming req see
system.mem_ctrls1.rdQLenPdf::11                     0                       # What read queue length does an incoming req see
system.mem_ctrls1.rdQLenPdf::12                     0                       # What read queue length does an incoming req see
system.mem_ctrls1.rdQLenPdf::13                     0                       # What read queue length does an incoming req see
system.mem_ctrls1.rdQLenPdf::14                     0                       # What read queue length does an incoming req see
system.mem_ctrls1.rdQLenPdf::15                     0                       # What read queue length does an incoming req see
system.mem_ctrls1.rdQLenPdf::16                     0                       # What read queue length does an incoming req see
system.mem_ctrls1.rdQLenPdf::17                     0                       # What read queue length does an incoming req see
system.mem_ctrls1.rdQLenPdf::18                     0                       # What read queue length does an incoming req see
system.mem_ctrls1.rdQLenPdf::19                     0                       # What read queue length does an incoming req see
system.mem_ctrls1.rdQLenPdf::20                     0                       # What read queue length does an incoming req see
system.mem_ctrls1.rdQLenPdf::21                     0                       # What read queue length does an incoming req see
system.mem_ctrls1.rdQLenPdf::22                     0                       # What read queue length does an incoming req see
system.mem_ctrls1.rdQLenPdf::23                     0                       # What read queue length does an incoming req see
system.mem_ctrls1.rdQLenPdf::24                     0                       # What read queue length does an incoming req see
system.mem_ctrls1.rdQLenPdf::25                     0                       # What read queue length does an incoming req see
system.mem_ctrls1.rdQLenPdf::26                     0                       # What read queue length does an incoming req see
system.mem_ctrls1.rdQLenPdf::27                     0                       # What read queue length does an incoming req see
system.mem_ctrls1.rdQLenPdf::28                     0                       # What read queue length does an incoming req see
system.mem_ctrls1.rdQLenPdf::29                     0                       # What read queue length does an incoming req see
system.mem_ctrls1.rdQLenPdf::30                     0                       # What read queue length does an incoming req see
system.mem_ctrls1.rdQLenPdf::31                     0                       # What read queue length does an incoming req see
system.mem_ctrls1.wrQLenPdf::0                      1                       # What write queue length does an incoming req see
system.mem_ctrls1.wrQLenPdf::1                      1                       # What write queue length does an incoming req see
system.mem_ctrls1.wrQLenPdf::2                      1                       # What write queue length does an incoming req see
system.mem_ctrls1.wrQLenPdf::3                      1                       # What write queue length does an incoming req see
system.mem_ctrls1.wrQLenPdf::4                      1                       # What write queue length does an incoming req see
system.mem_ctrls1.wrQLenPdf::5                      1                       # What write queue length does an incoming req see
system.mem_ctrls1.wrQLenPdf::6                      1                       # What write queue length does an incoming req see
system.mem_ctrls1.wrQLenPdf::7                      1                       # What write queue length does an incoming req see
system.mem_ctrls1.wrQLenPdf::8                      1                       # What write queue length does an incoming req see
system.mem_ctrls1.wrQLenPdf::9                      1                       # What write queue length does an incoming req see
system.mem_ctrls1.wrQLenPdf::10                     1                       # What write queue length does an incoming req see
system.mem_ctrls1.wrQLenPdf::11                     1                       # What write queue length does an incoming req see
system.mem_ctrls1.wrQLenPdf::12                     1                       # What write queue length does an incoming req see
system.mem_ctrls1.wrQLenPdf::13                     1                       # What write queue length does an incoming req see
system.mem_ctrls1.wrQLenPdf::14                     1                       # What write queue length does an incoming req see
system.mem_ctrls1.wrQLenPdf::15                   233                       # What write queue length does an incoming req see
system.mem_ctrls1.wrQLenPdf::16                   282                       # What write queue length does an incoming req see
system.mem_ctrls1.wrQLenPdf::17                   683                       # What write queue length does an incoming req see
system.mem_ctrls1.wrQLenPdf::18                   900                       # What write queue length does an incoming req see
system.mem_ctrls1.wrQLenPdf::19                   944                       # What write queue length does an incoming req see
system.mem_ctrls1.wrQLenPdf::20                   936                       # What write queue length does an incoming req see
system.mem_ctrls1.wrQLenPdf::21                   942                       # What write queue length does an incoming req see
system.mem_ctrls1.wrQLenPdf::22                   942                       # What write queue length does an incoming req see
system.mem_ctrls1.wrQLenPdf::23                   934                       # What write queue length does an incoming req see
system.mem_ctrls1.wrQLenPdf::24                   937                       # What write queue length does an incoming req see
system.mem_ctrls1.wrQLenPdf::25                   935                       # What write queue length does an incoming req see
system.mem_ctrls1.wrQLenPdf::26                   940                       # What write queue length does an incoming req see
system.mem_ctrls1.wrQLenPdf::27                   928                       # What write queue length does an incoming req see
system.mem_ctrls1.wrQLenPdf::28                   939                       # What write queue length does an incoming req see
system.mem_ctrls1.wrQLenPdf::29                   934                       # What write queue length does an incoming req see
system.mem_ctrls1.wrQLenPdf::30                   930                       # What write queue length does an incoming req see
system.mem_ctrls1.wrQLenPdf::31                   932                       # What write queue length does an incoming req see
system.mem_ctrls1.wrQLenPdf::32                   932                       # What write queue length does an incoming req see
system.mem_ctrls1.wrQLenPdf::33                    28                       # What write queue length does an incoming req see
system.mem_ctrls1.wrQLenPdf::34                     6                       # What write queue length does an incoming req see
system.mem_ctrls1.wrQLenPdf::35                     0                       # What write queue length does an incoming req see
system.mem_ctrls1.wrQLenPdf::36                     0                       # What write queue length does an incoming req see
system.mem_ctrls1.wrQLenPdf::37                     0                       # What write queue length does an incoming req see
system.mem_ctrls1.wrQLenPdf::38                     0                       # What write queue length does an incoming req see
system.mem_ctrls1.wrQLenPdf::39                     0                       # What write queue length does an incoming req see
system.mem_ctrls1.wrQLenPdf::40                     0                       # What write queue length does an incoming req see
system.mem_ctrls1.wrQLenPdf::41                     0                       # What write queue length does an incoming req see
system.mem_ctrls1.wrQLenPdf::42                     0                       # What write queue length does an incoming req see
system.mem_ctrls1.wrQLenPdf::43                     0                       # What write queue length does an incoming req see
system.mem_ctrls1.wrQLenPdf::44                     0                       # What write queue length does an incoming req see
system.mem_ctrls1.wrQLenPdf::45                     0                       # What write queue length does an incoming req see
system.mem_ctrls1.wrQLenPdf::46                     0                       # What write queue length does an incoming req see
system.mem_ctrls1.wrQLenPdf::47                     0                       # What write queue length does an incoming req see
system.mem_ctrls1.wrQLenPdf::48                     0                       # What write queue length does an incoming req see
system.mem_ctrls1.wrQLenPdf::49                     0                       # What write queue length does an incoming req see
system.mem_ctrls1.wrQLenPdf::50                     0                       # What write queue length does an incoming req see
system.mem_ctrls1.wrQLenPdf::51                     0                       # What write queue length does an incoming req see
system.mem_ctrls1.wrQLenPdf::52                     0                       # What write queue length does an incoming req see
system.mem_ctrls1.wrQLenPdf::53                     0                       # What write queue length does an incoming req see
system.mem_ctrls1.wrQLenPdf::54                     0                       # What write queue length does an incoming req see
system.mem_ctrls1.wrQLenPdf::55                     0                       # What write queue length does an incoming req see
system.mem_ctrls1.wrQLenPdf::56                     0                       # What write queue length does an incoming req see
system.mem_ctrls1.wrQLenPdf::57                     0                       # What write queue length does an incoming req see
system.mem_ctrls1.wrQLenPdf::58                     0                       # What write queue length does an incoming req see
system.mem_ctrls1.wrQLenPdf::59                     0                       # What write queue length does an incoming req see
system.mem_ctrls1.wrQLenPdf::60                     0                       # What write queue length does an incoming req see
system.mem_ctrls1.wrQLenPdf::61                     0                       # What write queue length does an incoming req see
system.mem_ctrls1.wrQLenPdf::62                     0                       # What write queue length does an incoming req see
system.mem_ctrls1.wrQLenPdf::63                     0                       # What write queue length does an incoming req see
system.mem_ctrls1.bytesPerActivate::samples       100140                       # Bytes accessed per row activation
system.mem_ctrls1.bytesPerActivate::mean   108.594847                       # Bytes accessed per row activation
system.mem_ctrls1.bytesPerActivate::gmean    85.904099                       # Bytes accessed per row activation
system.mem_ctrls1.bytesPerActivate::stdev   116.800230                       # Bytes accessed per row activation
system.mem_ctrls1.bytesPerActivate::0-127        72596     72.49%     72.49% # Bytes accessed per row activation
system.mem_ctrls1.bytesPerActivate::128-255        19315     19.29%     91.78% # Bytes accessed per row activation
system.mem_ctrls1.bytesPerActivate::256-383         3400      3.40%     95.18% # Bytes accessed per row activation
system.mem_ctrls1.bytesPerActivate::384-511         1966      1.96%     97.14% # Bytes accessed per row activation
system.mem_ctrls1.bytesPerActivate::512-639         1225      1.22%     98.36% # Bytes accessed per row activation
system.mem_ctrls1.bytesPerActivate::640-767         1003      1.00%     99.37% # Bytes accessed per row activation
system.mem_ctrls1.bytesPerActivate::768-895          240      0.24%     99.61% # Bytes accessed per row activation
system.mem_ctrls1.bytesPerActivate::896-1023          200      0.20%     99.81% # Bytes accessed per row activation
system.mem_ctrls1.bytesPerActivate::1024-1151          195      0.19%    100.00% # Bytes accessed per row activation
system.mem_ctrls1.bytesPerActivate::total       100140                       # Bytes accessed per row activation
system.mem_ctrls1.rdPerTurnAround::samples          918                       # Reads before turning the bus around for writes
system.mem_ctrls1.rdPerTurnAround::mean    168.495643                       # Reads before turning the bus around for writes
system.mem_ctrls1.rdPerTurnAround::gmean    62.877336                       # Reads before turning the bus around for writes
system.mem_ctrls1.rdPerTurnAround::stdev  2212.485212                       # Reads before turning the bus around for writes
system.mem_ctrls1.rdPerTurnAround::0-4095          917     99.89%     99.89% # Reads before turning the bus around for writes
system.mem_ctrls1.rdPerTurnAround::65536-69631            1      0.11%    100.00% # Reads before turning the bus around for writes
system.mem_ctrls1.rdPerTurnAround::total          918                       # Reads before turning the bus around for writes
system.mem_ctrls1.wrPerTurnAround::samples          918                       # Writes before turning the bus around for reads
system.mem_ctrls1.wrPerTurnAround::mean     16.596950                       # Writes before turning the bus around for reads
system.mem_ctrls1.wrPerTurnAround::gmean    16.572894                       # Writes before turning the bus around for reads
system.mem_ctrls1.wrPerTurnAround::stdev     0.909703                       # Writes before turning the bus around for reads
system.mem_ctrls1.wrPerTurnAround::16             627     68.30%     68.30% # Writes before turning the bus around for reads
system.mem_ctrls1.wrPerTurnAround::17              44      4.79%     73.09% # Writes before turning the bus around for reads
system.mem_ctrls1.wrPerTurnAround::18             239     26.03%     99.13% # Writes before turning the bus around for reads
system.mem_ctrls1.wrPerTurnAround::19               6      0.65%     99.78% # Writes before turning the bus around for reads
system.mem_ctrls1.wrPerTurnAround::20               2      0.22%    100.00% # Writes before turning the bus around for reads
system.mem_ctrls1.wrPerTurnAround::total          918                       # Writes before turning the bus around for reads
system.mem_ctrls1.totQLat                  4490345000                       # Total ticks spent queuing
system.mem_ctrls1.totMemAccLat             7390651250                       # Total ticks spent from burst creation until serviced by the DRAM
system.mem_ctrls1.totBusLat                 773415000                       # Total ticks spent in databus transfers
system.mem_ctrls1.avgQLat                    29029.34                       # Average queueing delay per DRAM burst
system.mem_ctrls1.avgBusLat                   5000.00                       # Average bus latency per DRAM burst
system.mem_ctrls1.avgMemAccLat               47779.34                       # Average memory access latency per DRAM burst
system.mem_ctrls1.avgRdBW                      618.15                       # Average DRAM read bandwidth in MiByte/s
system.mem_ctrls1.avgWrBW                       60.89                       # Average achieved write bandwidth in MiByte/s
system.mem_ctrls1.avgRdBWSys                   618.18                       # Average system read bandwidth in MiByte/s
system.mem_ctrls1.avgWrBWSys                    60.95                       # Average system write bandwidth in MiByte/s
system.mem_ctrls1.peakBW                     12800.00                       # Theoretical peak bandwidth in MiByte/s
system.mem_ctrls1.busUtil                        5.30                       # Data bus utilization in percentage
system.mem_ctrls1.busUtilRead                    4.83                       # Data bus utilization in percentage for reads
system.mem_ctrls1.busUtilWrite                   0.48                       # Data bus utilization in percentage for writes
system.mem_ctrls1.avgRdQLen                      1.55                       # Average read queue length when enqueuing
system.mem_ctrls1.avgWrQLen                     12.89                       # Average write queue length when enqueuing
system.mem_ctrls1.readRowHits                   66358                       # Number of row buffer hits during reads
system.mem_ctrls1.writeRowHits                   3419                       # Number of row buffer hits during writes
system.mem_ctrls1.readRowHitRate                42.90                       # Row buffer hit rate for reads
system.mem_ctrls1.writeRowHitRate               22.42                       # Row buffer hit rate for writes
system.mem_ctrls1.avgGap                     94234.60                       # Average gap between requests
system.mem_ctrls1.pageHitRate                   41.06                       # Row buffer hit rate, read and write combined
system.mem_ctrls1_0.actEnergy               341520480                       # Energy for activate commands per rank (pJ)
system.mem_ctrls1_0.preEnergy               181518645                       # Energy for precharge commands per rank (pJ)
system.mem_ctrls1_0.readEnergy              535271520                       # Energy for read commands per rank (pJ)
system.mem_ctrls1_0.writeEnergy              36226800                       # Energy for write commands per rank (pJ)
system.mem_ctrls1_0.refreshEnergy        1240958160.000000                       # Energy for refresh commands per rank (pJ)
system.mem_ctrls1_0.actBackEnergy          1446163530                       # Energy for active background per rank (pJ)
system.mem_ctrls1_0.preBackEnergy            34360320                       # Energy for precharge background per rank (pJ)
system.mem_ctrls1_0.actPowerDownEnergy     5084237550                       # Energy for active power-down per rank (pJ)
system.mem_ctrls1_0.prePowerDownEnergy      366662880                       # Energy for precharge power-down per rank (pJ)
system.mem_ctrls1_0.selfRefreshEnergy       183098775                       # Energy for self refresh per rank (pJ)
system.mem_ctrls1_0.totalEnergy            9450222030                       # Total energy per rank (pJ)
system.mem_ctrls1_0.averagePower           590.078901                       # Core power per rank (mW)
system.mem_ctrls1_0.totalIdleTime         12753557750                       # Total Idle time Per DRAM Rank
system.mem_ctrls1_0.memoryStateTime::IDLE     24295500                       # Time in different power states
system.mem_ctrls1_0.memoryStateTime::REF    525342000                       # Time in different power states
system.mem_ctrls1_0.memoryStateTime::SREF    649343750                       # Time in different power states
system.mem_ctrls1_0.memoryStateTime::PRE_PDN    954627750                       # Time in different power states
system.mem_ctrls1_0.memoryStateTime::ACT   2711849750                       # Time in different power states
system.mem_ctrls1_0.memoryStateTime::ACT_PDN  11149724750                       # Time in different power states
system.mem_ctrls1_1.actEnergy               373493400                       # Energy for activate commands per rank (pJ)
system.mem_ctrls1_1.preEnergy               198512655                       # Energy for precharge commands per rank (pJ)
system.mem_ctrls1_1.readEnergy              569165100                       # Energy for read commands per rank (pJ)
system.mem_ctrls1_1.writeEnergy              43305120                       # Energy for write commands per rank (pJ)
system.mem_ctrls1_1.refreshEnergy        1217601840.000000                       # Energy for refresh commands per rank (pJ)
system.mem_ctrls1_1.actBackEnergy          1520757150                       # Energy for active background per rank (pJ)
system.mem_ctrls1_1.preBackEnergy            31075200                       # Energy for precharge background per rank (pJ)
system.mem_ctrls1_1.actPowerDownEnergy     5118797220                       # Energy for active power-down per rank (pJ)
system.mem_ctrls1_1.prePowerDownEnergy      236980800                       # Energy for precharge power-down per rank (pJ)
system.mem_ctrls1_1.selfRefreshEnergy       194366730                       # Energy for self refresh per rank (pJ)
system.mem_ctrls1_1.totalEnergy            9504101115                       # Total energy per rank (pJ)
system.mem_ctrls1_1.averagePower           593.443151                       # Core power per rank (mW)
system.mem_ctrls1_1.totalIdleTime         12598941750                       # Total Idle time Per DRAM Rank
system.mem_ctrls1_1.memoryStateTime::IDLE     16951500                       # Time in different power states
system.mem_ctrls1_1.memoryStateTime::REF    515258000                       # Time in different power states
system.mem_ctrls1_1.memoryStateTime::SREF    756590250                       # Time in different power states
system.mem_ctrls1_1.memoryStateTime::PRE_PDN    617009250                       # Time in different power states
system.mem_ctrls1_1.memoryStateTime::ACT   2883564250                       # Time in different power states
system.mem_ctrls1_1.memoryStateTime::ACT_PDN  11225810250                       # Time in different power states
system.mem_ctrls2.pwrStateResidencyTicks::UNDEFINED  16015183500                       # Cumulative time (in ticks) in various power states
system.mem_ctrls2.bytes_read::ruby.dir_cntrl2      9910784                       # Number of bytes read from this memory
system.mem_ctrls2.bytes_read::total           9910784                       # Number of bytes read from this memory
system.mem_ctrls2.bytes_written::ruby.dir_cntrl2       973312                       # Number of bytes written to this memory
system.mem_ctrls2.bytes_written::total         973312                       # Number of bytes written to this memory
system.mem_ctrls2.num_reads::ruby.dir_cntrl2       154856                       # Number of read requests responded to by this memory
system.mem_ctrls2.num_reads::total             154856                       # Number of read requests responded to by this memory
system.mem_ctrls2.num_writes::ruby.dir_cntrl2        15208                       # Number of write requests responded to by this memory
system.mem_ctrls2.num_writes::total             15208                       # Number of write requests responded to by this memory
system.mem_ctrls2.bw_read::ruby.dir_cntrl2    618836743                       # Total read bandwidth from this memory (bytes/s)
system.mem_ctrls2.bw_read::total            618836743                       # Total read bandwidth from this memory (bytes/s)
system.mem_ctrls2.bw_write::ruby.dir_cntrl2     60774327                       # Write bandwidth from this memory (bytes/s)
system.mem_ctrls2.bw_write::total            60774327                       # Write bandwidth from this memory (bytes/s)
system.mem_ctrls2.bw_total::ruby.dir_cntrl2    679611070                       # Total bandwidth to/from this memory (bytes/s)
system.mem_ctrls2.bw_total::total           679611070                       # Total bandwidth to/from this memory (bytes/s)
system.mem_ctrls2.readReqs                     154856                       # Number of read requests accepted
system.mem_ctrls2.avgNetLat                      0.00                       # Average network latency to DRAM controller
system.mem_ctrls2.writeReqs                     15208                       # Number of write requests accepted
system.mem_ctrls2.readBursts                   154856                       # Number of DRAM read bursts, including those serviced by the write queue
system.mem_ctrls2.writeBursts                   15208                       # Number of DRAM write bursts, including those merged in the write queue
system.mem_ctrls2.bytesReadDRAM               9910336                       # Total number of bytes read from DRAM
system.mem_ctrls2.bytesReadWrQ                    448                       # Total number of bytes read from write queue
system.mem_ctrls2.bytesWritten                 972032                       # Total number of bytes written to DRAM
system.mem_ctrls2.bytesReadSys                9910784                       # Total read bytes from the system interface side
system.mem_ctrls2.bytesWrittenSys              973312                       # Total written bytes from the system interface side
system.mem_ctrls2.servicedByWrQ                     7                       # Number of DRAM read bursts serviced by the write queue
system.mem_ctrls2.mergedWrBursts                    0                       # Number of DRAM write bursts merged with an existing one
system.mem_ctrls2.neitherReadNorWriteReqs            0                       # Number of requests that are neither read nor write
system.mem_ctrls2.perBankRdBursts::0            10009                       # Per bank write bursts
system.mem_ctrls2.perBankRdBursts::1             9577                       # Per bank write bursts
system.mem_ctrls2.perBankRdBursts::2             9356                       # Per bank write bursts
system.mem_ctrls2.perBankRdBursts::3             9161                       # Per bank write bursts
system.mem_ctrls2.perBankRdBursts::4             9129                       # Per bank write bursts
system.mem_ctrls2.perBankRdBursts::5             9057                       # Per bank write bursts
system.mem_ctrls2.perBankRdBursts::6             9249                       # Per bank write bursts
system.mem_ctrls2.perBankRdBursts::7             9362                       # Per bank write bursts
system.mem_ctrls2.perBankRdBursts::8             9197                       # Per bank write bursts
system.mem_ctrls2.perBankRdBursts::9             9466                       # Per bank write bursts
system.mem_ctrls2.perBankRdBursts::10            9909                       # Per bank write bursts
system.mem_ctrls2.perBankRdBursts::11           10004                       # Per bank write bursts
system.mem_ctrls2.perBankRdBursts::12           10595                       # Per bank write bursts
system.mem_ctrls2.perBankRdBursts::13           10902                       # Per bank write bursts
system.mem_ctrls2.perBankRdBursts::14            9977                       # Per bank write bursts
system.mem_ctrls2.perBankRdBursts::15            9899                       # Per bank write bursts
system.mem_ctrls2.perBankWrBursts::0             1084                       # Per bank write bursts
system.mem_ctrls2.perBankWrBursts::1              904                       # Per bank write bursts
system.mem_ctrls2.perBankWrBursts::2              878                       # Per bank write bursts
system.mem_ctrls2.perBankWrBursts::3              828                       # Per bank write bursts
system.mem_ctrls2.perBankWrBursts::4              814                       # Per bank write bursts
system.mem_ctrls2.perBankWrBursts::5              778                       # Per bank write bursts
system.mem_ctrls2.perBankWrBursts::6              828                       # Per bank write bursts
system.mem_ctrls2.perBankWrBursts::7              774                       # Per bank write bursts
system.mem_ctrls2.perBankWrBursts::8              819                       # Per bank write bursts
system.mem_ctrls2.perBankWrBursts::9              909                       # Per bank write bursts
system.mem_ctrls2.perBankWrBursts::10            1022                       # Per bank write bursts
system.mem_ctrls2.perBankWrBursts::11            1008                       # Per bank write bursts
system.mem_ctrls2.perBankWrBursts::12            1205                       # Per bank write bursts
system.mem_ctrls2.perBankWrBursts::13            1281                       # Per bank write bursts
system.mem_ctrls2.perBankWrBursts::14            1024                       # Per bank write bursts
system.mem_ctrls2.perBankWrBursts::15            1032                       # Per bank write bursts
system.mem_ctrls2.numRdRetry                        0                       # Number of times read queue was full causing retry
system.mem_ctrls2.numWrRetry                        0                       # Number of times write queue was full causing retry
system.mem_ctrls2.totGap                  16014224500                       # Total gap between requests
system.mem_ctrls2.readPktSize::0                    0                       # Read request sizes (log2)
system.mem_ctrls2.readPktSize::1                    0                       # Read request sizes (log2)
system.mem_ctrls2.readPktSize::2                    0                       # Read request sizes (log2)
system.mem_ctrls2.readPktSize::3                    0                       # Read request sizes (log2)
system.mem_ctrls2.readPktSize::4                    0                       # Read request sizes (log2)
system.mem_ctrls2.readPktSize::5                    0                       # Read request sizes (log2)
system.mem_ctrls2.readPktSize::6               154856                       # Read request sizes (log2)
system.mem_ctrls2.writePktSize::0                   0                       # Write request sizes (log2)
system.mem_ctrls2.writePktSize::1                   0                       # Write request sizes (log2)
system.mem_ctrls2.writePktSize::2                   0                       # Write request sizes (log2)
system.mem_ctrls2.writePktSize::3                   0                       # Write request sizes (log2)
system.mem_ctrls2.writePktSize::4                   0                       # Write request sizes (log2)
system.mem_ctrls2.writePktSize::5                   0                       # Write request sizes (log2)
system.mem_ctrls2.writePktSize::6               15208                       # Write request sizes (log2)
system.mem_ctrls2.rdQLenPdf::0                  75078                       # What read queue length does an incoming req see
system.mem_ctrls2.rdQLenPdf::1                  41282                       # What read queue length does an incoming req see
system.mem_ctrls2.rdQLenPdf::2                  21077                       # What read queue length does an incoming req see
system.mem_ctrls2.rdQLenPdf::3                   9930                       # What read queue length does an incoming req see
system.mem_ctrls2.rdQLenPdf::4                   4315                       # What read queue length does an incoming req see
system.mem_ctrls2.rdQLenPdf::5                   1863                       # What read queue length does an incoming req see
system.mem_ctrls2.rdQLenPdf::6                    801                       # What read queue length does an incoming req see
system.mem_ctrls2.rdQLenPdf::7                    338                       # What read queue length does an incoming req see
system.mem_ctrls2.rdQLenPdf::8                    109                       # What read queue length does an incoming req see
system.mem_ctrls2.rdQLenPdf::9                     37                       # What read queue length does an incoming req see
system.mem_ctrls2.rdQLenPdf::10                    12                       # What read queue length does an incoming req see
system.mem_ctrls2.rdQLenPdf::11                     5                       # What read queue length does an incoming req see
system.mem_ctrls2.rdQLenPdf::12                     2                       # What read queue length does an incoming req see
system.mem_ctrls2.rdQLenPdf::13                     0                       # What read queue length does an incoming req see
system.mem_ctrls2.rdQLenPdf::14                     0                       # What read queue length does an incoming req see
system.mem_ctrls2.rdQLenPdf::15                     0                       # What read queue length does an incoming req see
system.mem_ctrls2.rdQLenPdf::16                     0                       # What read queue length does an incoming req see
system.mem_ctrls2.rdQLenPdf::17                     0                       # What read queue length does an incoming req see
system.mem_ctrls2.rdQLenPdf::18                     0                       # What read queue length does an incoming req see
system.mem_ctrls2.rdQLenPdf::19                     0                       # What read queue length does an incoming req see
system.mem_ctrls2.rdQLenPdf::20                     0                       # What read queue length does an incoming req see
system.mem_ctrls2.rdQLenPdf::21                     0                       # What read queue length does an incoming req see
system.mem_ctrls2.rdQLenPdf::22                     0                       # What read queue length does an incoming req see
system.mem_ctrls2.rdQLenPdf::23                     0                       # What read queue length does an incoming req see
system.mem_ctrls2.rdQLenPdf::24                     0                       # What read queue length does an incoming req see
system.mem_ctrls2.rdQLenPdf::25                     0                       # What read queue length does an incoming req see
system.mem_ctrls2.rdQLenPdf::26                     0                       # What read queue length does an incoming req see
system.mem_ctrls2.rdQLenPdf::27                     0                       # What read queue length does an incoming req see
system.mem_ctrls2.rdQLenPdf::28                     0                       # What read queue length does an incoming req see
system.mem_ctrls2.rdQLenPdf::29                     0                       # What read queue length does an incoming req see
system.mem_ctrls2.rdQLenPdf::30                     0                       # What read queue length does an incoming req see
system.mem_ctrls2.rdQLenPdf::31                     0                       # What read queue length does an incoming req see
system.mem_ctrls2.wrQLenPdf::0                      1                       # What write queue length does an incoming req see
system.mem_ctrls2.wrQLenPdf::1                      1                       # What write queue length does an incoming req see
system.mem_ctrls2.wrQLenPdf::2                      1                       # What write queue length does an incoming req see
system.mem_ctrls2.wrQLenPdf::3                      1                       # What write queue length does an incoming req see
system.mem_ctrls2.wrQLenPdf::4                      1                       # What write queue length does an incoming req see
system.mem_ctrls2.wrQLenPdf::5                      1                       # What write queue length does an incoming req see
system.mem_ctrls2.wrQLenPdf::6                      1                       # What write queue length does an incoming req see
system.mem_ctrls2.wrQLenPdf::7                      1                       # What write queue length does an incoming req see
system.mem_ctrls2.wrQLenPdf::8                      1                       # What write queue length does an incoming req see
system.mem_ctrls2.wrQLenPdf::9                      1                       # What write queue length does an incoming req see
system.mem_ctrls2.wrQLenPdf::10                     1                       # What write queue length does an incoming req see
system.mem_ctrls2.wrQLenPdf::11                     1                       # What write queue length does an incoming req see
system.mem_ctrls2.wrQLenPdf::12                     1                       # What write queue length does an incoming req see
system.mem_ctrls2.wrQLenPdf::13                     1                       # What write queue length does an incoming req see
system.mem_ctrls2.wrQLenPdf::14                     1                       # What write queue length does an incoming req see
system.mem_ctrls2.wrQLenPdf::15                   240                       # What write queue length does an incoming req see
system.mem_ctrls2.wrQLenPdf::16                   284                       # What write queue length does an incoming req see
system.mem_ctrls2.wrQLenPdf::17                   667                       # What write queue length does an incoming req see
system.mem_ctrls2.wrQLenPdf::18                   897                       # What write queue length does an incoming req see
system.mem_ctrls2.wrQLenPdf::19                   929                       # What write queue length does an incoming req see
system.mem_ctrls2.wrQLenPdf::20                   947                       # What write queue length does an incoming req see
system.mem_ctrls2.wrQLenPdf::21                   940                       # What write queue length does an incoming req see
system.mem_ctrls2.wrQLenPdf::22                   941                       # What write queue length does an incoming req see
[...]
system.ruby.L2Cache_Controller.SS.L2_Replacement_clean |         536      6.03%      6.03% |         591      6.65%     12.68% |         611      6.87%     19.55% |         543      6.11%     25.66% |         568      6.39%     32.04% |         597      6.71%     38.76% |         579      6.51%     45.27% |         522      5.87%     51.14% |         609      6.85%     57.99% |         449      5.05%     63.04% |         485      5.45%     68.50% |         532      5.98%     74.48% |         553      6.22%     80.70% |         560      6.30%     87.00% |         599      6.74%     93.74% |         557      6.26%    100.00%
system.ruby.L2Cache_Controller.SS.L2_Replacement_clean::total         8891                      
system.ruby.L2Cache_Controller.M.L1_GET_INSTR |          14     25.00%     25.00% |           0      0.00%     25.00% |           0      0.00%     25.00% |           0      0.00%     25.00% |           0      0.00%     25.00% |           0      0.00%     25.00% |           0      0.00%     25.00% |           0      0.00%     25.00% |          14     25.00%     50.00% |          14     25.00%     75.00% |           0      0.00%     75.00% |           0      0.00%     75.00% |           0      0.00%     75.00% |           0      0.00%     75.00% |          14     25.00%    100.00% |           0      0.00%    100.00%
system.ruby.L2Cache_Controller.M.L1_GET_INSTR::total           56                      
system.ruby.L2Cache_Controller.M.L1_GETS |       10014      6.13%      6.13% |       10155      6.22%     12.35% |        9954      6.09%     18.44% |       10208      6.25%     24.69% |        9839      6.02%     30.71% |        9697      5.94%     36.65% |        9782      5.99%     42.64% |        9981      6.11%     48.75% |       10024      6.14%     54.88% |        9798      6.00%     60.88% |       11263      6.89%     67.78% |       10646      6.52%     74.29% |       11016      6.74%     81.04% |       10552      6.46%     87.50% |       10948      6.70%     94.20% |        9477      5.80%    100.00%
system.ruby.L2Cache_Controller.M.L1_GETS::total       163354                      
system.ruby.L2Cache_Controller.M.L1_GETX |        1239      5.77%      5.77% |        1291      6.01%     11.78% |        1352      6.30%     18.08% |        1338      6.23%     24.31% |        1242      5.78%     30.10% |        1174      5.47%     35.57% |        1129      5.26%     40.82% |        1294      6.03%     46.85% |        1195      5.57%     52.42% |        1235      5.75%     58.17% |        1821      8.48%     66.65% |        1186      5.52%     72.18% |        1791      8.34%     80.52% |        1086      5.06%     85.58% |        1836      8.55%     94.13% |        1261      5.87%    100.00%
system.ruby.L2Cache_Controller.M.L1_GETX::total        21470                      
system.ruby.L2Cache_Controller.M.L2_Replacement |        3851      6.35%      6.35% |        3872      6.39%     12.74% |        3731      6.16%     18.90% |        3822      6.31%     25.21% |        3695      6.10%     31.31% |        3715      6.13%     37.44% |        3726      6.15%     43.59% |        3790      6.25%     49.84% |        3845      6.35%     56.19% |        3666      6.05%     62.23% |        3770      6.22%     68.46% |        3737      6.17%     74.62% |        3814      6.29%     80.92% |        3878      6.40%     87.32% |        3870      6.39%     93.70% |        3816      6.30%    100.00%
system.ruby.L2Cache_Controller.M.L2_Replacement::total        60598                      
system.ruby.L2Cache_Controller.M.L2_Replacement_clean |        2768      6.23%      6.23% |        2660      5.99%     12.22% |        2663      6.00%     18.22% |        2765      6.23%     24.44% |        2654      5.98%     30.42% |        2766      6.23%     36.65% |        2806      6.32%     42.97% |        2837      6.39%     49.35% |        2856      6.43%     55.78% |        2736      6.16%     61.94% |        2781      6.26%     68.21% |        2789      6.28%     74.49% |        2854      6.43%     80.91% |        2848      6.41%     87.33% |        2821      6.35%     93.68% |        2808      6.32%    100.00%
system.ruby.L2Cache_Controller.M.L2_Replacement_clean::total        44412                      
system.ruby.L2Cache_Controller.MT.L1_GETS |          70      3.99%      3.99% |          70      3.99%      7.97% |          98      5.58%     13.55% |          98      5.58%     19.13% |          98      5.58%     24.72% |         140      7.97%     32.69% |         140      7.97%     40.66% |         140      7.97%     48.63% |         136      7.74%     56.38% |         136      7.74%     64.12% |         136      7.74%     71.87% |         130      7.40%     79.27% |         112      6.38%     85.65% |         112      6.38%     92.03% |          70      3.99%     96.01% |          70      3.99%    100.00%
system.ruby.L2Cache_Controller.MT.L1_GETS::total         1756                      
system.ruby.L2Cache_Controller.MT.L1_GETX |           0      0.00%      0.00% |           0      0.00%      0.00% |           0      0.00%      0.00% |           0      0.00%      0.00% |           0      0.00%      0.00% |           0      0.00%      0.00% |           0      0.00%      0.00% |           0      0.00%      0.00% |           2     18.18%     18.18% |           2     18.18%     36.36% |           2     18.18%     54.55% |           5     45.45%    100.00% |           0      0.00%    100.00% |           0      0.00%    100.00% |           0      0.00%    100.00% |           0      0.00%    100.00%
system.ruby.L2Cache_Controller.MT.L1_GETX::total           11                      
system.ruby.L2Cache_Controller.MT.L1_PUTX |       47751      6.22%      6.22% |       47821      6.22%     12.44% |       47463      6.18%     18.62% |       48051      6.25%     24.87% |       47296      6.16%     31.03% |       47262      6.15%     37.18% |       47400      6.17%     43.35% |       47794      6.22%     49.57% |       47849      6.23%     55.80% |       47350      6.16%     61.96% |       49528      6.45%     68.41% |       48297      6.29%     74.70% |       49512      6.44%     81.14% |       48348      6.29%     87.43% |       49283      6.41%     93.85% |       47266      6.15%    100.00%
system.ruby.L2Cache_Controller.MT.L1_PUTX::total       768271                      
system.ruby.L2Cache_Controller.MT.L2_Replacement |           5      5.21%      5.21% |           8      8.33%     13.54% |           9      9.38%     22.92% |           7      7.29%     30.21% |           5      5.21%     35.42% |           6      6.25%     41.67% |           7      7.29%     48.96% |           9      9.38%     58.33% |           7      7.29%     65.62% |           7      7.29%     72.92% |           5      5.21%     78.12% |           8      8.33%     86.46% |           4      4.17%     90.62% |           1      1.04%     91.67% |           6      6.25%     97.92% |           2      2.08%    100.00%
system.ruby.L2Cache_Controller.MT.L2_Replacement::total           96                      
system.ruby.L2Cache_Controller.MT.L2_Replacement_clean |          22      5.87%      5.87% |          27      7.20%     13.07% |          18      4.80%     17.87% |          24      6.40%     24.27% |          23      6.13%     30.40% |          28      7.47%     37.87% |          16      4.27%     42.13% |          22      5.87%     48.00% |          27      7.20%     55.20% |          24      6.40%     61.60% |          25      6.67%     68.27% |          21      5.60%     73.87% |          27      7.20%     81.07% |          23      6.13%     87.20% |          24      6.40%     93.60% |          24      6.40%    100.00%
system.ruby.L2Cache_Controller.MT.L2_Replacement_clean::total          375                      
system.ruby.L2Cache_Controller.M_I.Mem_Ack |        7183      6.28%      6.28% |        7159      6.26%     12.54% |        7034      6.15%     18.69% |        7162      6.26%     24.95% |        6947      6.07%     31.02% |        7114      6.22%     37.24% |        7137      6.24%     43.48% |        7181      6.28%     49.76% |        7344      6.42%     56.18% |        6882      6.02%     62.19% |        7069      6.18%     68.37% |        7088      6.20%     74.57% |        7255      6.34%     80.91% |        7311      6.39%     87.30% |        7320      6.40%     93.70% |        7208      6.30%    100.00%
system.ruby.L2Cache_Controller.M_I.Mem_Ack::total       114394                      
system.ruby.L2Cache_Controller.MT_I.WB_Data |           0      0.00%      0.00% |           6     15.38%     15.38% |           4     10.26%     25.64% |           2      5.13%     30.77% |           1      2.56%     33.33% |           3      7.69%     41.03% |           3      7.69%     48.72% |           3      7.69%     56.41% |           3      7.69%     64.10% |           4     10.26%     74.36% |           2      5.13%     79.49% |           3      7.69%     87.18% |           1      2.56%     89.74% |           0      0.00%     89.74% |           2      5.13%     94.87% |           2      5.13%    100.00%
system.ruby.L2Cache_Controller.MT_I.WB_Data::total           39                      
system.ruby.L2Cache_Controller.MT_I.Ack_all |           5      8.77%      8.77% |           2      3.51%     12.28% |           5      8.77%     21.05% |           5      8.77%     29.82% |           4      7.02%     36.84% |           3      5.26%     42.11% |           4      7.02%     49.12% |           6     10.53%     59.65% |           4      7.02%     66.67% |           3      5.26%     71.93% |           3      5.26%     77.19% |           5      8.77%     85.96% |           3      5.26%     91.23% |           1      1.75%     92.98% |           4      7.02%    100.00% |           0      0.00%    100.00%
system.ruby.L2Cache_Controller.MT_I.Ack_all::total           57                      
system.ruby.L2Cache_Controller.MCT_I.WB_Data |          22      6.27%      6.27% |          25      7.12%     13.39% |          17      4.84%     18.23% |          22      6.27%     24.50% |          21      5.98%     30.48% |          26      7.41%     37.89% |          13      3.70%     41.60% |          21      5.98%     47.58% |          26      7.41%     54.99% |          22      6.27%     61.25% |          23      6.55%     67.81% |          20      5.70%     73.50% |          24      6.84%     80.34% |          22      6.27%     86.61% |          23      6.55%     93.16% |          24      6.84%    100.00%
system.ruby.L2Cache_Controller.MCT_I.WB_Data::total          351                      
system.ruby.L2Cache_Controller.MCT_I.Ack_all |           0      0.00%      0.00% |           2      8.33%      8.33% |           1      4.17%     12.50% |           2      8.33%     20.83% |           2      8.33%     29.17% |           2      8.33%     37.50% |           3     12.50%     50.00% |           1      4.17%     54.17% |           1      4.17%     58.33% |           2      8.33%     66.67% |           2      8.33%     75.00% |           1      4.17%     79.17% |           3     12.50%     91.67% |           1      4.17%     95.83% |           1      4.17%    100.00% |           0      0.00%    100.00%
system.ruby.L2Cache_Controller.MCT_I.Ack_all::total           24                      
system.ruby.L2Cache_Controller.I_I.Ack_all |         536      6.03%      6.03% |         591      6.65%     12.68% |         611      6.87%     19.55% |         543      6.11%     25.66% |         568      6.39%     32.04% |         597      6.71%     38.76% |         579      6.51%     45.27% |         522      5.87%     51.14% |         609      6.85%     57.99% |         449      5.05%     63.04% |         485      5.45%     68.50% |         532      5.98%     74.48% |         553      6.22%     80.70% |         560      6.30%     87.00% |         599      6.74%     93.74% |         557      6.26%    100.00%
system.ruby.L2Cache_Controller.I_I.Ack_all::total         8891                      
system.ruby.L2Cache_Controller.S_I.Ack   |           1      4.55%      4.55% |           1      4.55%      9.09% |           2      9.09%     18.18% |           1      4.55%     22.73% |           2      9.09%     31.82% |           2      9.09%     40.91% |           3     13.64%     54.55% |           1      4.55%     59.09% |           0      0.00%     59.09% |           0      0.00%     59.09% |           3     13.64%     72.73% |           1      4.55%     77.27% |           3     13.64%     90.91% |           1      4.55%     95.45% |           0      0.00%     95.45% |           1      4.55%    100.00%
system.ruby.L2Cache_Controller.S_I.Ack::total           22                      
system.ruby.L2Cache_Controller.S_I.Ack_all |           1      4.55%      4.55% |           1      4.55%      9.09% |           2      9.09%     18.18% |           1      4.55%     22.73% |           2      9.09%     31.82% |           2      9.09%     40.91% |           3     13.64%     54.55% |           1      4.55%     59.09% |           0      0.00%     59.09% |           0      0.00%     59.09% |           3     13.64%     72.73% |           1      4.55%     77.27% |           3     13.64%     90.91% |           1      4.55%     95.45% |           0      0.00%     95.45% |           1      4.55%    100.00%
system.ruby.L2Cache_Controller.S_I.Ack_all::total           22                      
system.ruby.L2Cache_Controller.ISS.Mem_Data |       29106      6.26%      6.26% |       28894      6.22%     12.48% |       28643      6.16%     18.65% |       29056      6.25%     24.90% |       28761      6.19%     31.09% |       28966      6.23%     37.32% |       29052      6.25%     43.57% |       29078      6.26%     49.83% |       29220      6.29%     56.12% |       28949      6.23%     62.35% |       29044      6.25%     68.60% |       29106      6.26%     74.87% |       29327      6.31%     81.18% |       29281      6.30%     87.48% |       29078      6.26%     93.74% |       29107      6.26%    100.00%
system.ruby.L2Cache_Controller.ISS.Mem_Data::total       464668                      
system.ruby.L2Cache_Controller.IS.Mem_Data |        1347      6.38%      6.38% |        1355      6.42%     12.80% |        1489      7.05%     19.85% |        1289      6.11%     25.96% |        1350      6.40%     32.35% |        1327      6.29%     38.64% |        1280      6.06%     44.70% |        1286      6.09%     50.80% |        1351      6.40%     57.20% |        1162      5.50%     62.70% |        1245      5.90%     68.60% |        1264      5.99%     74.59% |        1226      5.81%     80.39% |        1293      6.13%     86.52% |        1506      7.13%     93.65% |        1340      6.35%    100.00%
system.ruby.L2Cache_Controller.IS.Mem_Data::total        21110                      
system.ruby.L2Cache_Controller.IM.Mem_Data |        8316      6.22%      6.22% |        8405      6.28%     12.50% |        8435      6.31%     18.80% |        8387      6.27%     25.07% |        8390      6.27%     31.34% |        8377      6.26%     37.61% |        8389      6.27%     43.88% |        8390      6.27%     50.15% |        8345      6.24%     56.39% |        8317      6.22%     62.60% |        8350      6.24%     68.85% |        8311      6.21%     75.06% |        8315      6.22%     81.27% |        8366      6.25%     87.53% |        8345      6.24%     93.76% |        8342      6.24%    100.00%
system.ruby.L2Cache_Controller.IM.Mem_Data::total       133780                      
system.ruby.L2Cache_Controller.SS_MB.Exclusive_Unblock |          42      3.94%      3.94% |          42      3.94%      7.87% |          70      6.56%     14.43% |          56      5.25%     19.68% |          56      5.25%     24.93% |          84      7.87%     32.80% |          84      7.87%     40.67% |          84      7.87%     48.55% |          82      7.69%     56.23% |          82      7.69%     63.92% |          82      7.69%     71.60% |          79      7.40%     79.01% |          70      6.56%     85.57% |          70      6.56%     92.13% |          42      3.94%     96.06% |          42      3.94%    100.00%
system.ruby.L2Cache_Controller.SS_MB.Exclusive_Unblock::total         1067                      
system.ruby.L2Cache_Controller.MT_MB.Exclusive_Unblock |       48675      6.21%      6.21% |       48745      6.22%     12.44% |       48384      6.18%     18.61% |       48989      6.25%     24.87% |       48232      6.16%     31.03% |       48214      6.16%     37.18% |       48352      6.17%     43.35% |       48743      6.22%     49.58% |       48786      6.23%     55.81% |       48301      6.17%     61.97% |       50480      6.44%     68.42% |       49254      6.29%     74.71% |       50449      6.44%     81.15% |       49285      6.29%     87.44% |       50207      6.41%     93.85% |       48187      6.15%    100.00%
system.ruby.L2Cache_Controller.MT_MB.Exclusive_Unblock::total       783283                      
system.ruby.L2Cache_Controller.MT_IIB.WB_Data |          70      4.02%      4.02% |          70      4.02%      8.03% |          96      5.51%     13.54% |          97      5.57%     19.10% |          96      5.51%     24.61% |         139      7.97%     32.59% |         139      7.97%     40.56% |         139      7.97%     48.54% |         136      7.80%     56.34% |         136      7.80%     64.14% |         133      7.63%     71.77% |         130      7.46%     79.23% |         112      6.43%     85.66% |         111      6.37%     92.03% |          70      4.02%     96.04% |          69      3.96%    100.00%
system.ruby.L2Cache_Controller.MT_IIB.WB_Data::total         1743                      
system.ruby.L2Cache_Controller.MT_IIB.Unblock |           0      0.00%      0.00% |           0      0.00%      0.00% |           2     15.38%     15.38% |           1      7.69%     23.08% |           2     15.38%     38.46% |           1      7.69%     46.15% |           1      7.69%     53.85% |           1      7.69%     61.54% |           0      0.00%     61.54% |           0      0.00%     61.54% |           3     23.08%     84.62% |           0      0.00%     84.62% |           0      0.00%     84.62% |           1      7.69%     92.31% |           0      0.00%     92.31% |           1      7.69%    100.00%
system.ruby.L2Cache_Controller.MT_IIB.Unblock::total           13                      
system.ruby.L2Cache_Controller.MT_IB.WB_Data |           0      0.00%      0.00% |           0      0.00%      0.00% |           2     15.38%     15.38% |           1      7.69%     23.08% |           2     15.38%     38.46% |           1      7.69%     46.15% |           1      7.69%     53.85% |           1      7.69%     61.54% |           0      0.00%     61.54% |           0      0.00%     61.54% |           3     23.08%     84.62% |           0      0.00%     84.62% |           0      0.00%     84.62% |           1      7.69%     92.31% |           0      0.00%     92.31% |           1      7.69%    100.00%
system.ruby.L2Cache_Controller.MT_IB.WB_Data::total           13                      
system.ruby.L2Cache_Controller.MT_SB.Unblock |          70      4.02%      4.02% |          70      4.02%      8.03% |          96      5.51%     13.54% |          97      5.57%     19.10% |          96      5.51%     24.61% |         139      7.97%     32.59% |         139      7.97%     40.56% |         139      7.97%     48.54% |         136      7.80%     56.34% |         136      7.80%     64.14% |         133      7.63%     71.77% |         130      7.46%     79.23% |         112      6.43%     85.66% |         111      6.37%     92.03% |          70      4.02%     96.04% |          69      3.96%    100.00%
system.ruby.L2Cache_Controller.MT_SB.Unblock::total         1743                      

---------- End Simulation Statistics   ----------
