
---------- Begin Simulation Statistics ----------
sim_seconds                                  0.016006                       # Number of seconds simulated
sim_ticks                                 16005568000                       # Number of ticks simulated
final_tick                                16005568000                       # Number of ticks from beginning of simulation (restored from checkpoints and never reset)
sim_freq                                 1000000000000                       # Frequency of simulated ticks
host_inst_rate                                  54445                       # Simulator instruction rate (inst/s)
host_op_rate                                    94464                       # Simulator op (including micro ops) rate (op/s)
host_tick_rate                               18982603                       # Simulator tick rate (ticks/s)
host_mem_usage                                2042188                       # Number of bytes of host memory used
host_seconds                                   843.17                       # Real time elapsed on the host
sim_insts                                    45906537                       # Number of instructions simulated
sim_ops                                      79649264                       # Number of ops (including micro ops) simulated
system.voltage_domain.voltage                       1                       # Voltage in Volts
system.clk_domain.clock                          1000                       # Clock period in ticks
system.mem_ctrls0.pwrStateResidencyTicks::UNDEFINED  16005568000                       # Cumulative time (in ticks) in various power states
system.mem_ctrls0.bytes_read::ruby.dir_cntrl0     10149760                       # Number of bytes read from this memory
system.mem_ctrls0.bytes_read::total          10149760                       # Number of bytes read from this memory
system.mem_ctrls0.bytes_written::ruby.dir_cntrl0      1113920                       # Number of bytes written to this memory
system.mem_ctrls0.bytes_written::total        1113920                       # Number of bytes written to this memory
system.mem_ctrls0.num_reads::ruby.dir_cntrl0       158590                       # Number of read requests responded to by this memory
system.mem_ctrls0.num_reads::total             158590                       # Number of read requests responded to by this memory
system.mem_ctrls0.num_writes::ruby.dir_cntrl0        17405                       # Number of write requests responded to by this memory
system.mem_ctrls0.num_writes::total             17405                       # Number of write requests responded to by this memory
system.mem_ctrls0.bw_read::ruby.dir_cntrl0    634139320                       # Total read bandwidth from this memory (bytes/s)
system.mem_ctrls0.bw_read::total            634139320                       # Total read bandwidth from this memory (bytes/s)
system.mem_ctrls0.bw_write::ruby.dir_cntrl0     69595781                       # Write bandwidth from this memory (bytes/s)
system.mem_ctrls0.bw_write::total            69595781                       # Write bandwidth from this memory (bytes/s)
system.mem_ctrls0.bw_total::ruby.dir_cntrl0    703735100                       # Total bandwidth to/from this memory (bytes/s)
system.mem_ctrls0.bw_total::total           703735100                       # Total bandwidth to/from this memory (bytes/s)
system.mem_ctrls0.readReqs                     158590                       # Number of read requests accepted
system.mem_ctrls0.avgNetLat                      0.00                       # Average network latency to DRAM controller
system.mem_ctrls0.writeReqs                     17405                       # Number of write requests accepted
system.mem_ctrls0.readBursts                   158590                       # Number of DRAM read bursts, including those serviced by the write queue
system.mem_ctrls0.writeBursts                   17405                       # Number of DRAM write bursts, including those merged in the write queue
system.mem_ctrls0.bytesReadDRAM              10149120                       # Total number of bytes read from DRAM
system.mem_ctrls0.bytesReadWrQ                    640                       # Total number of bytes read from write queue
system.mem_ctrls0.bytesWritten                1112512                       # Total number of bytes written to DRAM
system.mem_ctrls0.bytesReadSys               10149760                       # Total read bytes from the system interface side
system.mem_ctrls0.bytesWrittenSys             1113920                       # Total written bytes from the system interface side
system.mem_ctrls0.servicedByWrQ                    10                       # Number of DRAM read bursts serviced by the write queue
system.mem_ctrls0.mergedWrBursts                    0                       # Number of DRAM write bursts merged with an existing one
system.mem_ctrls0.neitherReadNorWriteReqs            0                       # Number of requests that are neither read nor write
system.mem_ctrls0.perBankRdBursts::0            10332                       # Per bank write bursts
system.mem_ctrls0.perBankRdBursts::1            10366                       # Per bank write bursts
system.mem_ctrls0.perBankRdBursts::2             9912                       # Per bank write bursts
system.mem_ctrls0.perBankRdBursts::3             9836                       # Per bank write bursts
system.mem_ctrls0.perBankRdBursts::4             9737                       # Per bank write bursts
system.mem_ctrls0.perBankRdBursts::5             9349                       # Per bank write bursts
system.mem_ctrls0.perBankRdBursts::6             9279                       # Per bank write bursts
system.mem_ctrls0.perBankRdBursts::7             9463                       # Per bank write bursts
system.mem_ctrls0.perBankRdBursts::8             9527                       # Per bank write bursts
system.mem_ctrls0.perBankRdBursts::9             9509                       # Per bank write bursts
system.mem_ctrls0.perBankRdBursts::10           10218                       # Per bank write bursts
system.mem_ctrls0.perBankRdBursts::11            9881                       # Per bank write bursts
system.mem_ctrls0.perBankRdBursts::12           10412                       # Per bank write bursts
system.mem_ctrls0.perBankRdBursts::13           10541                       # Per bank write bursts
system.mem_ctrls0.perBankRdBursts::14            9998                       # Per bank write bursts
system.mem_ctrls0.perBankRdBursts::15           10220                       # Per bank write bursts
system.mem_ctrls0.perBankWrBursts::0             1385                       # Per bank write bursts
system.mem_ctrls0.perBankWrBursts::1             1323                       # Per bank write bursts
system.mem_ctrls0.perBankWrBursts::2             1129                       # Per bank write bursts
system.mem_ctrls0.perBankWrBursts::3             1067                       # Per bank write bursts
system.mem_ctrls0.perBankWrBursts::4             1028                       # Per bank write bursts
system.mem_ctrls0.perBankWrBursts::5              939                       # Per bank write bursts
system.mem_ctrls0.perBankWrBursts::6              836                       # Per bank write bursts
system.mem_ctrls0.perBankWrBursts::7              859                       # Per bank write bursts
system.mem_ctrls0.perBankWrBursts::8              936                       # Per bank write bursts
system.mem_ctrls0.perBankWrBursts::9              911                       # Per bank write bursts
system.mem_ctrls0.perBankWrBursts::10            1094                       # Per bank write bursts
system.mem_ctrls0.perBankWrBursts::11            1061                       # Per bank write bursts
system.mem_ctrls0.perBankWrBursts::12            1270                       # Per bank write bursts
system.mem_ctrls0.perBankWrBursts::13            1271                       # Per bank write bursts
system.mem_ctrls0.perBankWrBursts::14            1086                       # Per bank write bursts
system.mem_ctrls0.perBankWrBursts::15            1188                       # Per bank write bursts
system.mem_ctrls0.numRdRetry                        0                       # Number of times read queue was full causing retry
system.mem_ctrls0.numWrRetry                        0                       # Number of times write queue was full causing retry
system.mem_ctrls0.totGap                  16004473000                       # Total gap between requests
system.mem_ctrls0.readPktSize::0                    0                       # Read request sizes (log2)
system.mem_ctrls0.readPktSize::1                    0                       # Read request sizes (log2)
system.mem_ctrls0.readPktSize::2                    0                       # Read request sizes (log2)
system.mem_ctrls0.readPktSize::3                    0                       # Read request sizes (log2)
system.mem_ctrls0.readPktSize::4                    0                       # Read request sizes (log2)
system.mem_ctrls0.readPktSize::5                    0                       # Read request sizes (log2)
system.mem_ctrls0.readPktSize::6               158590                       # Read request sizes (log2)
system.mem_ctrls0.writePktSize::0                   0                       # Write request sizes (log2)
system.mem_ctrls0.writePktSize::1                   0                       # Write request sizes (log2)
system.mem_ctrls0.writePktSize::2                   0                       # Write request sizes (log2)
system.mem_ctrls0.writePktSize::3                   0                       # Write request sizes (log2)
system.mem_ctrls0.writePktSize::4                   0                       # Write request sizes (log2)
system.mem_ctrls0.writePktSize::5                   0                       # Write request sizes (log2)
system.mem_ctrls0.writePktSize::6               17405                       # Write request sizes (log2)
system.mem_ctrls0.rdQLenPdf::0                  76726                       # What read queue length does an incoming req see
system.mem_ctrls0.rdQLenPdf::1                  42351                       # What read queue length does an incoming req see
system.mem_ctrls0.rdQLenPdf::2                  22014                       # What read queue length does an incoming req see
system.mem_ctrls0.rdQLenPdf::3                  10486                       # What read queue length does an incoming req see
system.mem_ctrls0.rdQLenPdf::4                   4369                       # What read queue length does an incoming req see
system.mem_ctrls0.rdQLenPdf::5                   1694                       # What read queue length does an incoming req see
system.mem_ctrls0.rdQLenPdf::6                    614                       # What read queue length does an incoming req see
system.mem_ctrls0.rdQLenPdf::7                    196                       # What read queue length does an incoming req see
system.mem_ctrls0.rdQLenPdf::8                     86                       # What read queue length does an incoming req see
system.mem_ctrls0.rdQLenPdf::9                     30                       # What read queue length does an incoming req see
system.mem_ctrls0.rdQLenPdf::10                    11                       # What read queue length does an incoming req see
system.mem_ctrls0.rdQLenPdf::11                     3                       # What read queue length does an incoming req see
system.mem_ctrls0.rdQLenPdf::12                     0                       # What read queue length does an incoming req see
system.mem_ctrls0.rdQLenPdf::13                     0                       # What read queue length does an incoming req see
system.mem_ctrls0.rdQLenPdf::14                     0                       # What read queue length does an incoming req see
system.mem_ctrls0.rdQLenPdf::15                     0                       # What read queue length does an incoming req see
system.mem_ctrls0.rdQLenPdf::16                     0                       # What read queue length does an incoming req see
system.mem_ctrls0.rdQLenPdf::17                     0                       # What read queue length does an incoming req see
system.mem_ctrls0.rdQLenPdf::18                     0                       # What read queue length does an incoming req see
system.mem_ctrls0.rdQLenPdf::19                     0                       # What read queue length does an incoming req see
system.mem_ctrls0.rdQLenPdf::20                     0                       # What read queue length does an incoming req see
system.mem_ctrls0.rdQLenPdf::21                     0                       # What read queue length does an incoming req see
system.mem_ctrls0.rdQLenPdf::22                     0                       # What read queue length does an incoming req see
system.mem_ctrls0.rdQLenPdf::23                     0                       # What read queue length does an incoming req see
system.mem_ctrls0.rdQLenPdf::24                     0                       # What read queue length does an incoming req see
system.mem_ctrls0.rdQLenPdf::25                     0                       # What read queue length does an incoming req see
system.mem_ctrls0.rdQLenPdf::26                     0                       # What read queue length does an incoming req see
system.mem_ctrls0.rdQLenPdf::27                     0                       # What read queue length does an incoming req see
system.mem_ctrls0.rdQLenPdf::28                     0                       # What read queue length does an incoming req see
system.mem_ctrls0.rdQLenPdf::29                     0                       # What read queue length does an incoming req see
system.mem_ctrls0.rdQLenPdf::30                     0                       # What read queue length does an incoming req see
system.mem_ctrls0.rdQLenPdf::31                     0                       # What read queue length does an incoming req see
system.mem_ctrls0.wrQLenPdf::0                      1                       # What write queue length does an incoming req see
system.mem_ctrls0.wrQLenPdf::1                      1                       # What write queue length does an incoming req see
system.mem_ctrls0.wrQLenPdf::2                      1                       # What write queue length does an incoming req see
system.mem_ctrls0.wrQLenPdf::3                      1                       # What write queue length does an incoming req see
system.mem_ctrls0.wrQLenPdf::4                      1                       # What write queue length does an incoming req see
system.mem_ctrls0.wrQLenPdf::5                      1                       # What write queue length does an incoming req see
system.mem_ctrls0.wrQLenPdf::6                      1                       # What write queue length does an incoming req see
system.mem_ctrls0.wrQLenPdf::7                      1                       # What write queue length does an incoming req see
system.mem_ctrls0.wrQLenPdf::8                      1                       # What write queue length does an incoming req see
system.mem_ctrls0.wrQLenPdf::9                      1                       # What write queue length does an incoming req see
system.mem_ctrls0.wrQLenPdf::10                     1                       # What write queue length does an incoming req see
system.mem_ctrls0.wrQLenPdf::11                     1                       # What write queue length does an incoming req see
system.mem_ctrls0.wrQLenPdf::12                     1                       # What write queue length does an incoming req see
system.mem_ctrls0.wrQLenPdf::13                     1                       # What write queue length does an incoming req see
system.mem_ctrls0.wrQLenPdf::14                     1                       # What write queue length does an incoming req see
system.mem_ctrls0.wrQLenPdf::15                   212                       # What write queue length does an incoming req see
system.mem_ctrls0.wrQLenPdf::16                   253                       # What write queue length does an incoming req see
system.mem_ctrls0.wrQLenPdf::17                   659                       # What write queue length does an incoming req see
system.mem_ctrls0.wrQLenPdf::18                   971                       # What write queue length does an incoming req see
system.mem_ctrls0.wrQLenPdf::19                  1081                       # What write queue length does an incoming req see
system.mem_ctrls0.wrQLenPdf::20                  1110                       # What write queue length does an incoming req see
system.mem_ctrls0.wrQLenPdf::21                  1099                       # What write queue length does an incoming req see
system.mem_ctrls0.wrQLenPdf::22                  1095                       # What write queue length does an incoming req see
system.mem_ctrls0.wrQLenPdf::23                  1094                       # What write queue length does an incoming req see
system.mem_ctrls0.wrQLenPdf::24                  1097                       # What write queue length does an incoming req see
system.mem_ctrls0.wrQLenPdf::25                  1098                       # What write queue length does an incoming req see
system.mem_ctrls0.wrQLenPdf::26                  1090                       # What write queue length does an incoming req see
system.mem_ctrls0.wrQLenPdf::27                  1087                       # What write queue length does an incoming req see
system.mem_ctrls0.wrQLenPdf::28                  1079                       # What write queue length does an incoming req see
system.mem_ctrls0.wrQLenPdf::29                  1083                       # What write queue length does an incoming req see
system.mem_ctrls0.wrQLenPdf::30                  1080                       # What write queue length does an incoming req see
system.mem_ctrls0.wrQLenPdf::31                  1085                       # What write queue length does an incoming req see
system.mem_ctrls0.wrQLenPdf::32                  1074                       # What write queue length does an incoming req see
system.mem_ctrls0.wrQLenPdf::33                    40                       # What write queue length does an incoming req see
system.mem_ctrls0.wrQLenPdf::34                     3                       # What write queue length does an incoming req see
system.mem_ctrls0.wrQLenPdf::35                     0                       # What write queue length does an incoming req see
system.mem_ctrls0.wrQLenPdf::36                     0                       # What write queue length does an incoming req see
system.mem_ctrls0.wrQLenPdf::37                     0                       # What write queue length does an incoming req see
system.mem_ctrls0.wrQLenPdf::38                     0                       # What write queue length does an incoming req see
system.mem_ctrls0.wrQLenPdf::39                     0                       # What write queue length does an incoming req see
system.mem_ctrls0.wrQLenPdf::40                     0                       # What write queue length does an incoming req see
system.mem_ctrls0.wrQLenPdf::41                     0                       # What write queue length does an incoming req see
system.mem_ctrls0.wrQLenPdf::42                     0                       # What write queue length does an incoming req see
system.mem_ctrls0.wrQLenPdf::43                     0                       # What write queue length does an incoming req see
system.mem_ctrls0.wrQLenPdf::44                     0                       # What write queue length does an incoming req see
system.mem_ctrls0.wrQLenPdf::45                     0                       # What write queue length does an incoming req see
system.mem_ctrls0.wrQLenPdf::46                     0                       # What write queue length does an incoming req see
system.mem_ctrls0.wrQLenPdf::47                     0                       # What write queue length does an incoming req see
system.mem_ctrls0.wrQLenPdf::48                     0                       # What write queue length does an incoming req see
system.mem_ctrls0.wrQLenPdf::49                     0                       # What write queue length does an incoming req see
system.mem_ctrls0.wrQLenPdf::50                     0                       # What write queue length does an incoming req see
system.mem_ctrls0.wrQLenPdf::51                     0                       # What write queue length does an incoming req see
system.mem_ctrls0.wrQLenPdf::52                     0                       # What write queue length does an incoming req see
system.mem_ctrls0.wrQLenPdf::53                     0                       # What write queue length does an incoming req see
system.mem_ctrls0.wrQLenPdf::54                     0                       # What write queue length does an incoming req see
system.mem_ctrls0.wrQLenPdf::55                     0                       # What write queue length does an incoming req see
system.mem_ctrls0.wrQLenPdf::56                     0                       # What write queue length does an incoming req see
system.mem_ctrls0.wrQLenPdf::57                     0                       # What write queue length does an incoming req see
system.mem_ctrls0.wrQLenPdf::58                     0                       # What write queue length does an incoming req see
system.mem_ctrls0.wrQLenPdf::59                     0                       # What write queue length does an incoming req see
system.mem_ctrls0.wrQLenPdf::60                     0                       # What write queue length does an incoming req see
system.mem_ctrls0.wrQLenPdf::61                     0                       # What write queue length does an incoming req see
system.mem_ctrls0.wrQLenPdf::62                     0                       # What write queue length does an incoming req see
system.mem_ctrls0.wrQLenPdf::63                     0                       # What write queue length does an incoming req see
system.mem_ctrls0.bytesPerActivate::samples       108561                       # Bytes accessed per row activation
system.mem_ctrls0.bytesPerActivate::mean   103.735522                       # Bytes accessed per row activation
system.mem_ctrls0.bytesPerActivate::gmean    83.839364                       # Bytes accessed per row activation
system.mem_ctrls0.bytesPerActivate::stdev   105.997223                       # Bytes accessed per row activation
system.mem_ctrls0.bytesPerActivate::0-127        80916     74.54%     74.54% # Bytes accessed per row activation
system.mem_ctrls0.bytesPerActivate::128-255        19483     17.95%     92.48% # Bytes accessed per row activation
system.mem_ctrls0.bytesPerActivate::256-383         3615      3.33%     95.81% # Bytes accessed per row activation
system.mem_ctrls0.bytesPerActivate::384-511         2005      1.85%     97.66% # Bytes accessed per row activation
system.mem_ctrls0.bytesPerActivate::512-639         1231      1.13%     98.79% # Bytes accessed per row activation
system.mem_ctrls0.bytesPerActivate::640-767          909      0.84%     99.63% # Bytes accessed per row activation
system.mem_ctrls0.bytesPerActivate::768-895          141      0.13%     99.76% # Bytes accessed per row activation
system.mem_ctrls0.bytesPerActivate::896-1023          119      0.11%     99.87% # Bytes accessed per row activation
system.mem_ctrls0.bytesPerActivate::1024-1151          142      0.13%    100.00% # Bytes accessed per row activation
system.mem_ctrls0.bytesPerActivate::total       108561                       # Bytes accessed per row activation
system.mem_ctrls0.rdPerTurnAround::samples         1056                       # Reads before turning the bus around for writes
system.mem_ctrls0.rdPerTurnAround::mean    150.162879                       # Reads before turning the bus around for writes
system.mem_ctrls0.rdPerTurnAround::gmean    54.749379                       # Reads before turning the bus around for writes
system.mem_ctrls0.rdPerTurnAround::stdev  1931.107569                       # Reads before turning the bus around for writes
system.mem_ctrls0.rdPerTurnAround::0-2047         1053     99.72%     99.72% # Reads before turning the bus around for writes
system.mem_ctrls0.rdPerTurnAround::2048-4095            2      0.19%     99.91% # Reads before turning the bus around for writes
system.mem_ctrls0.rdPerTurnAround::61440-63487            1      0.09%    100.00% # Reads before turning the bus around for writes
system.mem_ctrls0.rdPerTurnAround::total         1056                       # Reads before turning the bus around for writes
system.mem_ctrls0.wrPerTurnAround::samples         1056                       # Writes before turning the bus around for reads
system.mem_ctrls0.wrPerTurnAround::mean     16.461174                       # Writes before turning the bus around for reads
system.mem_ctrls0.wrPerTurnAround::gmean    16.440911                       # Writes before turning the bus around for reads
system.mem_ctrls0.wrPerTurnAround::stdev     0.835474                       # Writes before turning the bus around for reads
system.mem_ctrls0.wrPerTurnAround::16             797     75.47%     75.47% # Writes before turning the bus around for reads
system.mem_ctrls0.wrPerTurnAround::17              39      3.69%     79.17% # Writes before turning the bus around for reads
system.mem_ctrls0.wrPerTurnAround::18             213     20.17%     99.34% # Writes before turning the bus around for reads
system.mem_ctrls0.wrPerTurnAround::19               6      0.57%     99.91% # Writes before turning the bus around for reads
system.mem_ctrls0.wrPerTurnAround::20               1      0.09%    100.00% # Writes before turning the bus around for reads
system.mem_ctrls0.wrPerTurnAround::total         1056                       # Writes before turning the bus around for reads
system.mem_ctrls0.totQLat                  4898178500                       # Total ticks spent queuing
system.mem_ctrls0.totMemAccLat             7871553500                       # Total ticks spent from burst creation until serviced by the DRAM
system.mem_ctrls0.totBusLat                 792900000                       # Total ticks spent in databus transfers
system.mem_ctrls0.avgQLat                    30887.74                       # Average queueing delay per DRAM burst
system.mem_ctrls0.avgBusLat                   5000.00                       # Average bus latency per DRAM burst
system.mem_ctrls0.avgMemAccLat               49637.74                       # Average memory access latency per DRAM burst
system.mem_ctrls0.avgRdBW                      634.10                       # Average DRAM read bandwidth in MiByte/s
system.mem_ctrls0.avgWrBW                       69.51                       # Average achieved write bandwidth in MiByte/s
system.mem_ctrls0.avgRdBWSys                   634.14                       # Average system read bandwidth in MiByte/s
system.mem_ctrls0.avgWrBWSys                    69.60                       # Average system write bandwidth in MiByte/s
system.mem_ctrls0.peakBW                     12800.00                       # Theoretical peak bandwidth in MiByte/s
system.mem_ctrls0.busUtil                        5.50                       # Data bus utilization in percentage
system.mem_ctrls0.busUtilRead                    4.95                       # Data bus utilization in percentage for reads
system.mem_ctrls0.busUtilWrite                   0.54                       # Data bus utilization in percentage for writes
system.mem_ctrls0.avgRdQLen                      1.57                       # Average read queue length when enqueuing
system.mem_ctrls0.avgWrQLen                     13.57                       # Average write queue length when enqueuing
system.mem_ctrls0.readRowHits                   64173                       # Number of row buffer hits during reads
system.mem_ctrls0.writeRowHits                   3229                       # Number of row buffer hits during writes
system.mem_ctrls0.readRowHitRate                40.47                       # Row buffer hit rate for reads
system.mem_ctrls0.writeRowHitRate               18.55                       # Row buffer hit rate for writes
system.mem_ctrls0.avgGap                     90937.09                       # Average gap between requests
system.mem_ctrls0.pageHitRate                   38.30                       # Row buffer hit rate, read and write combined
system.mem_ctrls0_0.actEnergy               381575880                       # Energy for activate commands per rank (pJ)
system.mem_ctrls0_0.preEnergy               202812390                       # Energy for precharge commands per rank (pJ)
system.mem_ctrls0_0.readEnergy              558876360                       # Energy for read commands per rank (pJ)
system.mem_ctrls0_0.writeEnergy              44714520                       # Energy for write commands per rank (pJ)
system.mem_ctrls0_0.refreshEnergy        1232353200.000000                       # Energy for refresh commands per rank (pJ)
system.mem_ctrls0_0.actBackEnergy          1495343700                       # Energy for active background per rank (pJ)
system.mem_ctrls0_0.preBackEnergy            38854080                       # Energy for precharge background per rank (pJ)
system.mem_ctrls0_0.actPowerDownEnergy     5025228870                       # Energy for active power-down per rank (pJ)
system.mem_ctrls0_0.prePowerDownEnergy      345349920                       # Energy for precharge power-down per rank (pJ)
system.mem_ctrls0_0.selfRefreshEnergy       193075020                       # Energy for self refresh per rank (pJ)
system.mem_ctrls0_0.totalEnergy            9518183940                       # Total energy per rank (pJ)
system.mem_ctrls0_0.averagePower           594.679520                       # Core power per rank (mW)
system.mem_ctrls0_0.totalIdleTime         12624798000                       # Total Idle time Per DRAM Rank
system.mem_ctrls0_0.memoryStateTime::IDLE     22388250                       # Time in different power states
system.mem_ctrls0_0.memoryStateTime::REF    521612000                       # Time in different power states
system.mem_ctrls0_0.memoryStateTime::SREF    705539250                       # Time in different power states
system.mem_ctrls0_0.memoryStateTime::PRE_PDN    899177250                       # Time in different power states
system.mem_ctrls0_0.memoryStateTime::ACT   2836691250                       # Time in different power states
system.mem_ctrls0_0.memoryStateTime::ACT_PDN  11020160000                       # Time in different power states
system.mem_ctrls0_1.actEnergy               393549660                       # Energy for activate commands per rank (pJ)
system.mem_ctrls0_1.preEnergy               209176605                       # Energy for precharge commands per rank (pJ)
system.mem_ctrls0_1.readEnergy              573384840                       # Energy for read commands per rank (pJ)
system.mem_ctrls0_1.writeEnergy              46024740                       # Energy for write commands per rank (pJ)
system.mem_ctrls0_1.refreshEnergy        1230509280.000000                       # Energy for refresh commands per rank (pJ)
system.mem_ctrls0_1.actBackEnergy          1533329640                       # Energy for active background per rank (pJ)
system.mem_ctrls0_1.preBackEnergy            42388320                       # Energy for precharge background per rank (pJ)
system.mem_ctrls0_1.actPowerDownEnergy     5042339700                       # Energy for active power-down per rank (pJ)
system.mem_ctrls0_1.prePowerDownEnergy      301484160                       # Energy for precharge power-down per rank (pJ)
system.mem_ctrls0_1.selfRefreshEnergy       186581130                       # Energy for self refresh per rank (pJ)
system.mem_ctrls0_1.totalEnergy            9558988395                       # Total energy per rank (pJ)
system.mem_ctrls0_1.averagePower           597.228911                       # Core power per rank (mW)
system.mem_ctrls0_1.totalIdleTime         12529255500                       # Total Idle time Per DRAM Rank
system.mem_ctrls0_1.memoryStateTime::IDLE     35550250                       # Time in different power states
system.mem_ctrls0_1.memoryStateTime::REF    520802000                       # Time in different power states
system.mem_ctrls0_1.memoryStateTime::SREF    689251500                       # Time in different power states
system.mem_ctrls0_1.memoryStateTime::PRE_PDN    784951250                       # Time in different power states
system.mem_ctrls0_1.memoryStateTime::ACT   2916480500                       # Time in different power states
system.mem_ctrls0_1.memoryStateTime::ACT_PDN  11058532500                       # Time in different power states
system.mem_ctrls1.pwrStateResidencyTicks::UNDEFINED  16005568000                       # Cumulative time (in ticks) in various power states
system.mem_ctrls1.bytes_read::ruby.dir_cntrl1     10125568                       # Number of bytes read from this memory
system.mem_ctrls1.bytes_read::total          10125568                       # Number of bytes read from this memory
system.mem_ctrls1.bytes_written::ruby.dir_cntrl1      1114944                       # Number of bytes written to this memory
system.mem_ctrls1.bytes_written::total        1114944                       # Number of bytes written to this memory
system.mem_ctrls1.num_reads::ruby.dir_cntrl1       158212                       # Number of read requests responded to by this memory
system.mem_ctrls1.num_reads::total             158212                       # Number of read requests responded to by this memory
system.mem_ctrls1.num_writes::ruby.dir_cntrl1        17421                       # Number of write requests responded to by this memory
system.mem_ctrls1.num_writes::total             17421                       # Number of write requests responded to by this memory
system.mem_ctrls1.bw_read::ruby.dir_cntrl1    632627846                       # Total read bandwidth from this memory (bytes/s)
system.mem_ctrls1.bw_read::total            632627846                       # Total read bandwidth from this memory (bytes/s)
system.mem_ctrls1.bw_write::ruby.dir_cntrl1     69659758                       # Write bandwidth from this memory (bytes/s)
system.mem_ctrls1.bw_write::total            69659758                       # Write bandwidth from this memory (bytes/s)
system.mem_ctrls1.bw_total::ruby.dir_cntrl1    702287604                       # Total bandwidth to/from this memory (bytes/s)
system.mem_ctrls1.bw_total::total           702287604                       # Total bandwidth to/from this memory (bytes/s)
system.mem_ctrls1.readReqs                     158212                       # Number of read requests accepted
system.mem_ctrls1.avgNetLat                      0.00                       # Average network latency to DRAM controller
system.mem_ctrls1.writeReqs                     17421                       # Number of write requests accepted
system.mem_ctrls1.readBursts                   158212                       # Number of DRAM read bursts, including those serviced by the write queue
system.mem_ctrls1.writeBursts                   17421                       # Number of DRAM write bursts, including those merged in the write queue
system.mem_ctrls1.bytesReadDRAM              10125248                       # Total number of bytes read from DRAM
system.mem_ctrls1.bytesReadWrQ                    320                       # Total number of bytes read from write queue
system.mem_ctrls1.bytesWritten                1113792                       # Total number of bytes written to DRAM
system.mem_ctrls1.bytesReadSys               10125568                       # Total read bytes from the system interface side
system.mem_ctrls1.bytesWrittenSys             1114944                       # Total written bytes from the system interface side
system.mem_ctrls1.servicedByWrQ                     5                       # Number of DRAM read bursts serviced by the write queue
system.mem_ctrls1.mergedWrBursts                    0                       # Number of DRAM write bursts merged with an existing one
system.mem_ctrls1.neitherReadNorWriteReqs            0                       # Number of requests that are neither read nor write
system.mem_ctrls1.perBankRdBursts::0            10243                       # Per bank write bursts
system.mem_ctrls1.perBankRdBursts::1            10279                       # Per bank write bursts
system.mem_ctrls1.perBankRdBursts::2             9931                       # Per bank write bursts
system.mem_ctrls1.perBankRdBursts::3             9769                       # Per bank write bursts
system.mem_ctrls1.perBankRdBursts::4             9720                       # Per bank write bursts
system.mem_ctrls1.perBankRdBursts::5             9336                       # Per bank write bursts
system.mem_ctrls1.perBankRdBursts::6             9286                       # Per bank write bursts
system.mem_ctrls1.perBankRdBursts::7             9466                       # Per bank write bursts
system.mem_ctrls1.perBankRdBursts::8             9478                       # Per bank write bursts
system.mem_ctrls1.perBankRdBursts::9             9485                       # Per bank write bursts
system.mem_ctrls1.perBankRdBursts::10           10236                       # Per bank write bursts
system.mem_ctrls1.perBankRdBursts::11            9886                       # Per bank write bursts
system.mem_ctrls1.perBankRdBursts::12           10391                       # Per bank write bursts
system.mem_ctrls1.perBankRdBursts::13           10510                       # Per bank write bursts
system.mem_ctrls1.perBankRdBursts::14            9967                       # Per bank write bursts
system.mem_ctrls1.perBankRdBursts::15           10224                       # Per bank write bursts
system.mem_ctrls1.perBankWrBursts::0             1321                       # Per bank write bursts
system.mem_ctrls1.perBankWrBursts::1             1274                       # Per bank write bursts
system.mem_ctrls1.perBankWrBursts::2             1153                       # Per bank write bursts
system.mem_ctrls1.perBankWrBursts::3             1052                       # Per bank write bursts
system.mem_ctrls1.perBankWrBursts::4             1036                       # Per bank write bursts
system.mem_ctrls1.perBankWrBursts::5              911                       # Per bank write bursts
system.mem_ctrls1.perBankWrBursts::6              850                       # Per bank write bursts
system.mem_ctrls1.perBankWrBursts::7              904                       # Per bank write bursts
system.mem_ctrls1.perBankWrBursts::8              907                       # Per bank write bursts
system.mem_ctrls1.perBankWrBursts::9              928                       # Per bank write bursts
system.mem_ctrls1.perBankWrBursts::10            1130                       # Per bank write bursts
system.mem_ctrls1.perBankWrBursts::11            1096                       # Per bank write bursts
system.mem_ctrls1.perBankWrBursts::12            1290                       # Per bank write bursts
system.mem_ctrls1.perBankWrBursts::13            1259                       # Per bank write bursts
system.mem_ctrls1.perBankWrBursts::14            1072                       # Per bank write bursts
system.mem_ctrls1.perBankWrBursts::15            1220                       # Per bank write bursts
system.mem_ctrls1.numRdRetry                        0                       # Number of times read queue was full causing retry
system.mem_ctrls1.numWrRetry                        0                       # Number of times write queue was full causing retry
system.mem_ctrls1.totGap                  16004981500                       # Total gap between requests
system.mem_ctrls1.readPktSize::0                    0                       # Read request sizes (log2)
system.mem_ctrls1.readPktSize::1                    0                       # Read request sizes (log2)
system.mem_ctrls1.readPktSize::2                    0                       # Read request sizes (log2)
system.mem_ctrls1.readPktSize::3                    0                       # Read request sizes (log2)
system.mem_ctrls1.readPktSize::4                    0                       # Read request sizes (log2)
system.mem_ctrls1.readPktSize::5                    0                       # Read request sizes (log2)
system.mem_ctrls1.readPktSize::6               158212                       # Read request sizes (log2)
system.mem_ctrls1.writePktSize::0                   0                       # Write request sizes (log2)
system.mem_ctrls1.writePktSize::1                   0                       # Write request sizes (log2)
system.mem_ctrls1.writePktSize::2                   0                       # Write request sizes (log2)
system.mem_ctrls1.writePktSize::3                   0                       # Write request sizes (log2)
system.mem_ctrls1.writePktSize::4                   0                       # Write request sizes (log2)
system.mem_ctrls1.writePktSize::5                   0                       # Write request sizes (log2)
system.mem_ctrls1.writePktSize::6               17421                       # Write request sizes (log2)
system.mem_ctrls1.rdQLenPdf::0                  75853                       # What read queue length does an incoming req see
system.mem_ctrls1.rdQLenPdf::1                  42663                       # What read queue length does an incoming req see
system.mem_ctrls1.rdQLenPdf::2                  21864                       # What read queue length does an incoming req see
system.mem_ctrls1.rdQLenPdf::3                  10586                       # What read queue length does an incoming req see
system.mem_ctrls1.rdQLenPdf::4                   4677                       # What read queue length does an incoming req see
system.mem_ctrls1.rdQLenPdf::5                   1721                       # What read queue length does an incoming req see
system.mem_ctrls1.rdQLenPdf::6                    585                       # What read queue length does an incoming req see
system.mem_ctrls1.rdQLenPdf::7                    207                       # What read queue length does an incoming req see
system.mem_ctrls1.rdQLenPdf::8                     41                       # What read queue length does an incoming req see
system.mem_ctrls1.rdQLenPdf::9                      7                       # What read queue length does an incoming req see
system.mem_ctrls1.rdQLenPdf::10                     2                       # What read queue length does an incoming req see
system.mem_ctrls1.rdQLenPdf::11                     1                       # What read queue length does an incoming req see
system.mem_ctrls1.rdQLenPdf::12                     0                       # What read queue length does an incoming req see
system.mem_ctrls1.rdQLenPdf::13                     0                       # What read queue length does an incoming req see
system.mem_ctrls1.rdQLenPdf::14                     0                       # What read queue length does an incoming req see
system.mem_ctrls1.rdQLenPdf::15                     0                       # What read queue length does an incoming req see
system.mem_ctrls1.rdQLenPdf::16                     0                       # What read queue length does an incoming req see
system.mem_ctrls1.rdQLenPdf::17                     0                       # What read queue length does an incoming req see
system.mem_ctrls1.rdQLenPdf::18                     0                       # What read queue length does an incoming req see
system.mem_ctrls1.rdQLenPdf::19                     0                       # What read queue length does an incoming req see
system.mem_ctrls1.rdQLenPdf::20                     0                       # What read queue length does an incoming req see
system.mem_ctrls1.rdQLenPdf::21                     0                       # What read queue length does an incoming req see
system.mem_ctrls1.rdQLenPdf::22                     0                       # What read queue length does an incoming req see
system.mem_ctrls1.rdQLenPdf::23                     0                       # What read queue length does an incoming req see
system.mem_ctrls1.rdQLenPdf::24                     0                       # What read queue length does an incoming req see
system.mem_ctrls1.rdQLenPdf::25                     0                       # What read queue length does an incoming req see
system.mem_ctrls1.rdQLenPdf::26                     0                       # What read queue length does an incoming req see
system.mem_ctrls1.rdQLenPdf::27                     0                       # What read queue length does an incoming req see
system.mem_ctrls1.rdQLenPdf::28                     0                       # What read queue length does an incoming req see
system.mem_ctrls1.rdQLenPdf::29                     0                       # What read queue length does an incoming req see
system.mem_ctrls1.rdQLenPdf::30                     0                       # What read queue length does an incoming req see
system.mem_ctrls1.rdQLenPdf::31                     0                       # What read queue length does an incoming req see
system.mem_ctrls1.wrQLenPdf::0                      1                       # What write queue length does an incoming req see
system.mem_ctrls1.wrQLenPdf::1                      1                       # What write queue length does an incoming req see
system.mem_ctrls1.wrQLenPdf::2                      1                       # What write queue length does an incoming req see
system.mem_ctrls1.wrQLenPdf::3                      1                       # What write queue length does an incoming req see
system.mem_ctrls1.wrQLenPdf::4                      1                       # What write queue length does an incoming req see
system.mem_ctrls1.wrQLenPdf::5                      1                       # What write queue length does an incoming req see
system.mem_ctrls1.wrQLenPdf::6                      1                       # What write queue length does an incoming req see
system.mem_ctrls1.wrQLenPdf::7                      1                       # What write queue length does an incoming req see
system.mem_ctrls1.wrQLenPdf::8                      1                       # What write queue length does an incoming req see
system.mem_ctrls1.wrQLenPdf::9                      1                       # What write queue length does an incoming req see
system.mem_ctrls1.wrQLenPdf::10                     1                       # What write queue length does an incoming req see
system.mem_ctrls1.wrQLenPdf::11                     1                       # What write queue length does an incoming req see
system.mem_ctrls1.wrQLenPdf::12                     1                       # What write queue length does an incoming req see
system.mem_ctrls1.wrQLenPdf::13                     1                       # What write queue length does an incoming req see
system.mem_ctrls1.wrQLenPdf::14                     1                       # What write queue length does an incoming req see
system.mem_ctrls1.wrQLenPdf::15                   216                       # What write queue length does an incoming req see
system.mem_ctrls1.wrQLenPdf::16                   254                       # What write queue length does an incoming req see
system.mem_ctrls1.wrQLenPdf::17                   618                       # What write queue length does an incoming req see
system.mem_ctrls1.wrQLenPdf::18                   951                       # What write queue length does an incoming req see
system.mem_ctrls1.wrQLenPdf::19                  1095                       # What write queue length does an incoming req see
system.mem_ctrls1.wrQLenPdf::20                  1105                       # What write queue length does an incoming req see
system.mem_ctrls1.wrQLenPdf::21                  1106                       # What write queue length does an incoming req see
system.mem_ctrls1.wrQLenPdf::22                  1097                       # What write queue length does an incoming req see
system.mem_ctrls1.wrQLenPdf::23                  1107                       # What write queue length does an incoming req see
system.mem_ctrls1.wrQLenPdf::24                  1101                       # What write queue length does an incoming req see
system.mem_ctrls1.wrQLenPdf::25                  1107                       # What write queue length does an incoming req see
system.mem_ctrls1.wrQLenPdf::26                  1095                       # What write queue length does an incoming req see
system.mem_ctrls1.wrQLenPdf::27                  1095                       # What write queue length does an incoming req see
system.mem_ctrls1.wrQLenPdf::28                  1088                       # What write queue length does an incoming req see
system.mem_ctrls1.wrQLenPdf::29                  1089                       # What write queue length does an incoming req see
system.mem_ctrls1.wrQLenPdf::30                  1090                       # What write queue length does an incoming req see
system.mem_ctrls1.wrQLenPdf::31                  1076                       # What write queue length does an incoming req see
system.mem_ctrls1.wrQLenPdf::32                  1068                       # What write queue length does an incoming req see
system.mem_ctrls1.wrQLenPdf::33                    45                       # What write queue length does an incoming req see
system.mem_ctrls1.wrQLenPdf::34                     3                       # What write queue length does an incoming req see
system.mem_ctrls1.wrQLenPdf::35                     0                       # What write queue length does an incoming req see
system.mem_ctrls1.wrQLenPdf::36                     0                       # What write queue length does an incoming req see
system.mem_ctrls1.wrQLenPdf::37                     0                       # What write queue length does an incoming req see
system.mem_ctrls1.wrQLenPdf::38                     0                       # What write queue length does an incoming req see
system.mem_ctrls1.wrQLenPdf::39                     0                       # What write queue length does an incoming req see
system.mem_ctrls1.wrQLenPdf::40                     0                       # What write queue length does an incoming req see
system.mem_ctrls1.wrQLenPdf::41                     0                       # What write queue length does an incoming req see
system.mem_ctrls1.wrQLenPdf::42                     0                       # What write queue length does an incoming req see
system.mem_ctrls1.wrQLenPdf::43                     0                       # What write queue length does an incoming req see
system.mem_ctrls1.wrQLenPdf::44                     0                       # What write queue length does an incoming req see
system.mem_ctrls1.wrQLenPdf::45                     0                       # What write queue length does an incoming req see
system.mem_ctrls1.wrQLenPdf::46                     0                       # What write queue length does an incoming req see
system.mem_ctrls1.wrQLenPdf::47                     0                       # What write queue length does an incoming req see
system.mem_ctrls1.wrQLenPdf::48                     0                       # What write queue length does an incoming req see
system.mem_ctrls1.wrQLenPdf::49                     0                       # What write queue length does an incoming req see
system.mem_ctrls1.wrQLenPdf::50                     0                       # What write queue length does an incoming req see
system.mem_ctrls1.wrQLenPdf::51                     0                       # What write queue length does an incoming req see
system.mem_ctrls1.wrQLenPdf::52                     0                       # What write queue length does an incoming req see
system.mem_ctrls1.wrQLenPdf::53                     0                       # What write queue length does an incoming req see
system.mem_ctrls1.wrQLenPdf::54                     0                       # What write queue length does an incoming req see
system.mem_ctrls1.wrQLenPdf::55                     0                       # What write queue length does an incoming req see
system.mem_ctrls1.wrQLenPdf::56                     0                       # What write queue length does an incoming req see
system.mem_ctrls1.wrQLenPdf::57                     0                       # What write queue length does an incoming req see
system.mem_ctrls1.wrQLenPdf::58                     0                       # What write queue length does an incoming req see
system.mem_ctrls1.wrQLenPdf::59                     0                       # What write queue length does an incoming req see
system.mem_ctrls1.wrQLenPdf::60                     0                       # What write queue length does an incoming req see
system.mem_ctrls1.wrQLenPdf::61                     0                       # What write queue length does an incoming req see
system.mem_ctrls1.wrQLenPdf::62                     0                       # What write queue length does an incoming req see
system.mem_ctrls1.wrQLenPdf::63                     0                       # What write queue length does an incoming req see
system.mem_ctrls1.bytesPerActivate::samples       108001                       # Bytes accessed per row activation
system.mem_ctrls1.bytesPerActivate::mean   104.060666                       # Bytes accessed per row activation
system.mem_ctrls1.bytesPerActivate::gmean    84.016949                       # Bytes accessed per row activation
system.mem_ctrls1.bytesPerActivate::stdev   106.672185                       # Bytes accessed per row activation
system.mem_ctrls1.bytesPerActivate::0-127        80224     74.28%     74.28% # Bytes accessed per row activation
system.mem_ctrls1.bytesPerActivate::128-255        19603     18.15%     92.43% # Bytes accessed per row activation
system.mem_ctrls1.bytesPerActivate::256-383         3615      3.35%     95.78% # Bytes accessed per row activation
system.mem_ctrls1.bytesPerActivate::384-511         1977      1.83%     97.61% # Bytes accessed per row activation
system.mem_ctrls1.bytesPerActivate::512-639         1255      1.16%     98.77% # Bytes accessed per row activation
system.mem_ctrls1.bytesPerActivate::640-767          925      0.86%     99.63% # Bytes accessed per row activation
system.mem_ctrls1.bytesPerActivate::768-895          122      0.11%     99.74% # Bytes accessed per row activation
system.mem_ctrls1.bytesPerActivate::896-1023          122      0.11%     99.85% # Bytes accessed per row activation
system.mem_ctrls1.bytesPerActivate::1024-1151          158      0.15%    100.00% # Bytes accessed per row activation
system.mem_ctrls1.bytesPerActivate::total       108001                       # Bytes accessed per row activation
system.mem_ctrls1.rdPerTurnAround::samples         1057                       # Reads before turning the bus around for writes
system.mem_ctrls1.rdPerTurnAround::mean    149.673605                       # Reads before turning the bus around for writes
system.mem_ctrls1.rdPerTurnAround::gmean    54.113167                       # Reads before turning the bus around for writes
system.mem_ctrls1.rdPerTurnAround::stdev  1919.573138                       # Reads before turning the bus around for writes
system.mem_ctrls1.rdPerTurnAround::0-2047         1054     99.72%     99.72% # Reads before turning the bus around for writes
system.mem_ctrls1.rdPerTurnAround::2048-4095            2      0.19%     99.91% # Reads before turning the bus around for writes
system.mem_ctrls1.rdPerTurnAround::61440-63487            1      0.09%    100.00% # Reads before turning the bus around for writes
system.mem_ctrls1.rdPerTurnAround::total         1057                       # Reads before turning the bus around for writes
system.mem_ctrls1.wrPerTurnAround::samples         1057                       # Writes before turning the bus around for reads
system.mem_ctrls1.wrPerTurnAround::mean     16.464522                       # Writes before turning the bus around for reads
system.mem_ctrls1.wrPerTurnAround::gmean    16.443818                       # Writes before turning the bus around for reads
system.mem_ctrls1.wrPerTurnAround::stdev     0.844389                       # Writes before turning the bus around for reads
system.mem_ctrls1.wrPerTurnAround::16             803     75.97%     75.97% # Writes before turning the bus around for reads
system.mem_ctrls1.wrPerTurnAround::17              25      2.37%     78.33% # Writes before turning the bus around for reads
system.mem_ctrls1.wrPerTurnAround::18             221     20.91%     99.24% # Writes before turning the bus around for reads
system.mem_ctrls1.wrPerTurnAround::19               8      0.76%    100.00% # Writes before turning the bus around for reads
system.mem_ctrls1.wrPerTurnAround::total         1057                       # Writes before turning the bus around for reads
system.mem_ctrls1.totQLat                  4848442250                       # Total ticks spent queuing
system.mem_ctrls1.totMemAccLat             7814823500                       # Total ticks spent from burst creation until serviced by the DRAM
system.mem_ctrls1.totBusLat                 791035000                       # Total ticks spent in databus transfers
system.mem_ctrls1.avgQLat                    30646.19                       # Average queueing delay per DRAM burst
system.mem_ctrls1.avgBusLat                   5000.00                       # Average bus latency per DRAM burst
system.mem_ctrls1.avgMemAccLat               49396.19                       # Average memory access latency per DRAM burst
system.mem_ctrls1.avgRdBW                      632.61                       # Average DRAM read bandwidth in MiByte/s
system.mem_ctrls1.avgWrBW                       69.59                       # Average achieved write bandwidth in MiByte/s
system.mem_ctrls1.avgRdBWSys                   632.63                       # Average system read bandwidth in MiByte/s
system.mem_ctrls1.avgWrBWSys                    69.66                       # Average system write bandwidth in MiByte/s
system.mem_ctrls1.peakBW                     12800.00                       # Theoretical peak bandwidth in MiByte/s
system.mem_ctrls1.busUtil                        5.49                       # Data bus utilization in percentage
system.mem_ctrls1.busUtilRead                    4.94                       # Data bus utilization in percentage for reads
system.mem_ctrls1.busUtilWrite                   0.54                       # Data bus utilization in percentage for writes
system.mem_ctrls1.avgRdQLen                      1.58                       # Average read queue length when enqueuing
system.mem_ctrls1.avgWrQLen                     13.48                       # Average write queue length when enqueuing
system.mem_ctrls1.readRowHits                   64274                       # Number of row buffer hits during reads
system.mem_ctrls1.writeRowHits                   3329                       # Number of row buffer hits during writes
system.mem_ctrls1.readRowHitRate                40.63                       # Row buffer hit rate for reads
system.mem_ctrls1.writeRowHitRate               19.11                       # Row buffer hit rate for writes
system.mem_ctrls1.avgGap                     91127.42                       # Average gap between requests
system.mem_ctrls1.pageHitRate                   38.49                       # Row buffer hit rate, read and write combined
system.mem_ctrls1_0.actEnergy               379298220                       # Energy for activate commands per rank (pJ)
system.mem_ctrls1_0.preEnergy               201590400                       # Energy for precharge commands per rank (pJ)
system.mem_ctrls1_0.readEnergy              557134200                       # Energy for read commands per rank (pJ)
system.mem_ctrls1_0.writeEnergy              44375220                       # Energy for write commands per rank (pJ)
system.mem_ctrls1_0.refreshEnergy        1220675040.000000                       # Energy for refresh commands per rank (pJ)
system.mem_ctrls1_0.actBackEnergy          1502436210                       # Energy for active background per rank (pJ)
system.mem_ctrls1_0.preBackEnergy            41277600                       # Energy for precharge background per rank (pJ)
system.mem_ctrls1_0.actPowerDownEnergy     5002089150                       # Energy for active power-down per rank (pJ)
system.mem_ctrls1_0.prePowerDownEnergy      327912480                       # Energy for precharge power-down per rank (pJ)
system.mem_ctrls1_0.selfRefreshEnergy       205440630                       # Energy for self refresh per rank (pJ)
system.mem_ctrls1_0.totalEnergy            9482298990                       # Total energy per rank (pJ)
system.mem_ctrls1_0.averagePower           592.437491                       # Core power per rank (mW)
system.mem_ctrls1_0.totalIdleTime         12602711750                       # Total Idle time Per DRAM Rank
system.mem_ctrls1_0.memoryStateTime::IDLE     27194500                       # Time in different power states
system.mem_ctrls1_0.memoryStateTime::REF    516606000                       # Time in different power states
system.mem_ctrls1_0.memoryStateTime::SREF    779664500                       # Time in different power states
system.mem_ctrls1_0.memoryStateTime::PRE_PDN    853904250                       # Time in different power states
system.mem_ctrls1_0.memoryStateTime::ACT   2858666000                       # Time in different power states
system.mem_ctrls1_0.memoryStateTime::ACT_PDN  10969532750                       # Time in different power states
system.mem_ctrls1_1.actEnergy               391871760                       # Energy for activate commands per rank (pJ)
system.mem_ctrls1_1.preEnergy               208273395                       # Energy for precharge commands per rank (pJ)
system.mem_ctrls1_1.readEnergy              572463780                       # Energy for read commands per rank (pJ)
system.mem_ctrls1_1.writeEnergy              46468440                       # Energy for write commands per rank (pJ)
system.mem_ctrls1_1.refreshEnergy        1237884960.000000                       # Energy for refresh commands per rank (pJ)
system.mem_ctrls1_1.actBackEnergy          1526741010                       # Energy for active background per rank (pJ)
system.mem_ctrls1_1.preBackEnergy            37135200                       # Energy for precharge background per rank (pJ)
system.mem_ctrls1_1.actPowerDownEnergy     5081891430                       # Energy for active power-down per rank (pJ)
system.mem_ctrls1_1.prePowerDownEnergy      292037280                       # Energy for precharge power-down per rank (pJ)
system.mem_ctrls1_1.selfRefreshEnergy       182983575                       # Energy for self refresh per rank (pJ)
system.mem_ctrls1_1.totalEnergy            9578340690                       # Total energy per rank (pJ)
system.mem_ctrls1_1.averagePower           598.438009                       # Core power per rank (mW)
system.mem_ctrls1_1.totalIdleTime         12559712500                       # Total Idle time Per DRAM Rank
system.mem_ctrls1_1.memoryStateTime::IDLE     23060500                       # Time in different power states
system.mem_ctrls1_1.memoryStateTime::REF    523970000                       # Time in different power states
system.mem_ctrls1_1.memoryStateTime::SREF    654431000                       # Time in different power states
system.mem_ctrls1_1.memoryStateTime::PRE_PDN    760479000                       # Time in different power states
system.mem_ctrls1_1.memoryStateTime::ACT   2898673000                       # Time in different power states
system.mem_ctrls1_1.memoryStateTime::ACT_PDN  11144954500                       # Time in different power states
system.mem_ctrls2.pwrStateResidencyTicks::UNDEFINED  16005568000                       # Cumulative time (in ticks) in various power states
system.mem_ctrls2.bytes_read::ruby.dir_cntrl2     10142784                       # Number of bytes read from this memory
system.mem_ctrls2.bytes_read::total          10142784                       # Number of bytes read from this memory
system.mem_ctrls2.bytes_written::ruby.dir_cntrl2      1117696                       # Number of bytes written to this memory
system.mem_ctrls2.bytes_written::total        1117696                       # Number of bytes written to this memory
system.mem_ctrls2.num_reads::ruby.dir_cntrl2       158481                       # Number of read requests responded to by this memory
system.mem_ctrls2.num_reads::total             158481                       # Number of read requests responded to by this memory
system.mem_ctrls2.num_writes::ruby.dir_cntrl2        17464                       # Number of write requests responded to by this memory
system.mem_ctrls2.num_writes::total             17464                       # Number of write requests responded to by this memory
system.mem_ctrls2.bw_read::ruby.dir_cntrl2    633703471                       # Total read bandwidth from this memory (bytes/s)
system.mem_ctrls2.bw_read::total            633703471                       # Total read bandwidth from this memory (bytes/s)
system.mem_ctrls2.bw_write::ruby.dir_cntrl2     69831699                       # Write bandwidth from this memory (bytes/s)
system.mem_ctrls2.bw_write::total            69831699                       # Write bandwidth from this memory (bytes/s)
system.mem_ctrls2.bw_total::ruby.dir_cntrl2    703535170                       # Total bandwidth to/from this memory (bytes/s)
system.mem_ctrls2.bw_total::total           703535170                       # Total bandwidth to/from this memory (bytes/s)
system.mem_ctrls2.readReqs                     158481                       # Number of read requests accepted
system.mem_ctrls2.avgNetLat                      0.00                       # Average network latency to DRAM controller
system.mem_ctrls2.writeReqs                     17464                       # Number of write requests accepted
system.mem_ctrls2.readBursts                   158481                       # Number of DRAM read bursts, including those serviced by the write queue
system.mem_ctrls2.writeBursts                   17464                       # Number of DRAM write bursts, including those merged in the write queue
system.mem_ctrls2.bytesReadDRAM              10142144                       # Total number of bytes read from DRAM
system.mem_ctrls2.bytesReadWrQ                    640                       # Total number of bytes read from write queue
system.mem_ctrls2.bytesWritten                1116480                       # Total number of bytes written to DRAM
system.mem_ctrls2.bytesReadSys               10142784                       # Total read bytes from the system interface side
system.mem_ctrls2.bytesWrittenSys             1117696                       # Total written bytes from the system interface side
system.mem_ctrls2.servicedByWrQ                    10                       # Number of DRAM read bursts serviced by the write queue
system.mem_ctrls2.mergedWrBursts                    0                       # Number of DRAM write bursts merged with an existing one
system.mem_ctrls2.neitherReadNorWriteReqs            0                       # Number of requests that are neither read nor write
system.mem_ctrls2.perBankRdBursts::0            10228                       # Per bank write bursts
system.mem_ctrls2.perBankRdBursts::1            10317                       # Per bank write bursts
system.mem_ctrls2.perBankRdBursts::2             9898                       # Per bank write bursts
system.mem_ctrls2.perBankRdBursts::3             9789                       # Per bank write bursts
system.mem_ctrls2.perBankRdBursts::4             9768                       # Per bank write bursts
system.mem_ctrls2.perBankRdBursts::5             9352                       # Per bank write bursts
system.mem_ctrls2.perBankRdBursts::6             9267                       # Per bank write bursts
system.mem_ctrls2.perBankRdBursts::7             9502                       # Per bank write bursts
system.mem_ctrls2.perBankRdBursts::8             9451                       # Per bank write bursts
system.mem_ctrls2.perBankRdBursts::9             9481                       # Per bank write bursts
system.mem_ctrls2.perBankRdBursts::10           10274                       # Per bank write bursts
system.mem_ctrls2.perBankRdBursts::11            9886                       # Per bank write bursts
system.mem_ctrls2.perBankRdBursts::12           10425                       # Per bank write bursts
system.mem_ctrls2.perBankRdBursts::13           10588                       # Per bank write bursts
system.mem_ctrls2.perBankRdBursts::14           10016                       # Per bank write bursts
system.mem_ctrls2.perBankRdBursts::15           10229                       # Per bank write bursts
system.mem_ctrls2.perBankWrBursts::0             1326                       # Per bank write bursts
system.mem_ctrls2.perBankWrBursts::1             1322                       # Per bank write bursts
system.mem_ctrls2.perBankWrBursts::2             1123                       # Per bank write bursts
system.mem_ctrls2.perBankWrBursts::3             1066                       # Per bank write bursts
system.mem_ctrls2.perBankWrBursts::4             1062                       # Per bank write bursts
system.mem_ctrls2.perBankWrBursts::5              940                       # Per bank write bursts
system.mem_ctrls2.perBankWrBursts::6              846                       # Per bank write bursts
system.mem_ctrls2.perBankWrBursts::7              885                       # Per bank write bursts
system.mem_ctrls2.perBankWrBursts::8              902                       # Per bank write bursts
system.mem_ctrls2.perBankWrBursts::9              893                       # Per bank write bursts
system.mem_ctrls2.perBankWrBursts::10            1092                       # Per bank write bursts
system.mem_ctrls2.perBankWrBursts::11            1095                       # Per bank write bursts
system.mem_ctrls2.perBankWrBursts::12            1308                       # Per bank write bursts
system.mem_ctrls2.perBankWrBursts::13            1303                       # Per bank write bursts
system.mem_ctrls2.perBankWrBursts::14            1084                       # Per bank write bursts
system.mem_ctrls2.perBankWrBursts::15            1198                       # Per bank write bursts
system.mem_ctrls2.numRdRetry                        0                       # Number of times read queue was full causing retry
system.mem_ctrls2.numWrRetry                        0                       # Number of times write queue was full causing retry
system.mem_ctrls2.totGap                  16004616500                       # Total gap between requests
system.mem_ctrls2.readPktSize::0                    0                       # Read request sizes (log2)
system.mem_ctrls2.readPktSize::1                    0                       # Read request sizes (log2)
system.mem_ctrls2.readPktSize::2                    0                       # Read request sizes (log2)
system.mem_ctrls2.readPktSize::3                    0                       # Read request sizes (log2)
system.mem_ctrls2.readPktSize::4                    0                       # Read request sizes (log2)
system.mem_ctrls2.readPktSize::5                    0                       # Read request sizes (log2)
system.mem_ctrls2.readPktSize::6               158481                       # Read request sizes (log2)
system.mem_ctrls2.writePktSize::0                   0                       # Write request sizes (log2)
system.mem_ctrls2.writePktSize::1                   0                       # Write request sizes (log2)
system.mem_ctrls2.writePktSize::2                   0                       # Write request sizes (log2)
system.mem_ctrls2.writePktSize::3                   0                       # Write request sizes (log2)
system.mem_ctrls2.writePktSize::4                   0                       # Write request sizes (log2)
system.mem_ctrls2.writePktSize::5                   0                       # Write request sizes (log2)
system.mem_ctrls2.writePktSize::6               17464                       # Write request sizes (log2)
system.mem_ctrls2.rdQLenPdf::0                  76206                       # What read queue length does an incoming req see
system.mem_ctrls2.rdQLenPdf::1                  43100                       # What read queue length does an incoming req see
system.mem_ctrls2.rdQLenPdf::2                  22038                       # What read queue length does an incoming req see
system.mem_ctrls2.rdQLenPdf::3                  10317                       # What read queue length does an incoming req see
system.mem_ctrls2.rdQLenPdf::4                   4386                       # What read queue length does an incoming req see
system.mem_ctrls2.rdQLenPdf::5                   1645                       # What read queue length does an incoming req see
system.mem_ctrls2.rdQLenPdf::6                    556                       # What read queue length does an incoming req see
system.mem_ctrls2.rdQLenPdf::7                    172                       # What read queue length does an incoming req see
system.mem_ctrls2.rdQLenPdf::8                     39                       # What read queue length does an incoming req see
system.mem_ctrls2.rdQLenPdf::9                     11                       # What read queue length does an incoming req see
system.mem_ctrls2.rdQLenPdf::10                     1                       # What read queue length does an incoming req see
system.mem_ctrls2.rdQLenPdf::11                     0                       # What read queue length does an incoming req see
system.mem_ctrls2.rdQLenPdf::12                     0                       # What read queue length does an incoming req see
system.mem_ctrls2.rdQLenPdf::13                     0                       # What read queue length does an incoming req see
system.mem_ctrls2.rdQLenPdf::14                     0                       # What read queue length does an incoming req see
system.mem_ctrls2.rdQLenPdf::15                     0                       # What read queue length does an incoming req see
system.mem_ctrls2.rdQLenPdf::16                     0                       # What read queue length does an incoming req see
system.mem_ctrls2.rdQLenPdf::17                     0                       # What read queue length does an incoming req see
system.mem_ctrls2.rdQLenPdf::18                     0                       # What read queue length does an incoming req see
system.mem_ctrls2.rdQLenPdf::19                     0                       # What read queue length does an incoming req see
system.mem_ctrls2.rdQLenPdf::20                     0                       # What read queue length does an incoming req see
system.mem_ctrls2.rdQLenPdf::21                     0                       # What read queue length does an incoming req see
system.mem_ctrls2.rdQLenPdf::22                     0                       # What read queue length does an incoming req see
system.mem_ctrls2.rdQLenPdf::23                     0                       # What read queue length does an incoming req see
system.mem_ctrls2.rdQLenPdf::24                     0                       # What read queue length does an incoming req see
system.mem_ctrls2.rdQLenPdf::25                     0                       # What read queue length does an incoming req see
system.mem_ctrls2.rdQLenPdf::26                     0                       # What read queue length does an incoming req see
system.mem_ctrls2.rdQLenPdf::27                     0                       # What read queue length does an incoming req see
system.mem_ctrls2.rdQLenPdf::28                     0                       # What read queue length does an incoming req see
system.mem_ctrls2.rdQLenPdf::29                     0                       # What read queue length does an incoming req see
system.mem_ctrls2.rdQLenPdf::30                     0                       # What read queue length does an incoming req see
system.mem_ctrls2.rdQLenPdf::31                     0                       # What read queue length does an incoming req see
system.mem_ctrls2.wrQLenPdf::0                      1                       # What write queue length does an incoming req see
system.mem_ctrls2.wrQLenPdf::1                      1                       # What write queue length does an incoming req see
system.mem_ctrls2.wrQLenPdf::2                      1                       # What write queue length does an incoming req see
system.mem_ctrls2.wrQLenPdf::3                      1                       # What write queue length does an incoming req see
system.mem_ctrls2.wrQLenPdf::4                      1                       # What write queue length does an incoming req see
system.mem_ctrls2.wrQLenPdf::5                      1                       # What write queue length does an incoming req see
system.mem_ctrls2.wrQLenPdf::6                      1                       # What write queue length does an incoming req see
system.mem_ctrls2.wrQLenPdf::7                      1                       # What write queue length does an incoming req see
system.mem_ctrls2.wrQLenPdf::8                      1                       # What write queue length does an incoming req see
system.mem_ctrls2.wrQLenPdf::9                      1                       # What write queue length does an incoming req see
system.mem_ctrls2.wrQLenPdf::10                     1                       # What write queue length does an incoming req see
system.mem_ctrls2.wrQLenPdf::11                     1                       # What write queue length does an incoming req see
system.mem_ctrls2.wrQLenPdf::12                     1                       # What write queue length does an incoming req see
system.mem_ctrls2.wrQLenPdf::13                     1                       # What write queue length does an incoming req see
system.mem_ctrls2.wrQLenPdf::14                     1                       # What write queue length does an incoming req see
system.mem_ctrls2.wrQLenPdf::15                   202                       # What write queue length does an incoming req see
system.mem_ctrls2.wrQLenPdf::16                   267                       # What write queue length does an incoming req see
system.mem_ctrls2.wrQLenPdf::17                   639                       # What write queue length does an incoming req see
system.mem_ctrls2.wrQLenPdf::18                   961                       # What write queue length does an incoming req see
system.mem_ctrls2.wrQLenPdf::19                  1096                       # What write queue length does an incoming req see
system.mem_ctrls2.wrQLenPdf::20                  1113                       # What write queue length does an incoming req see
system.mem_ctrls2.wrQLenPdf::21                  1111                       # What write queue length does an incoming req see
[...]
system.ruby.L2Cache_Controller.M.L1_GETX |        1265      6.05%      6.05% |        1368      6.55%     12.60% |        1332      6.37%     18.98% |        1236      5.92%     24.89% |        1303      6.24%     31.13% |        1232      5.90%     37.02% |        1183      5.66%     42.68% |        1349      6.46%     49.14% |        1242      5.94%     55.08% |        1292      6.18%     61.27% |        1277      6.11%     67.38% |        1248      5.97%     73.35% |        1227      5.87%     79.22% |        1144      5.47%     84.70% |        1872      8.96%     93.66% |        1325      6.34%    100.00%
system.ruby.L2Cache_Controller.M.L1_GETX::total        20895                      
system.ruby.L2Cache_Controller.M.L2_Replacement |        4369      6.30%      6.30% |        4321      6.23%     12.54% |        4323      6.24%     18.77% |        4377      6.31%     25.09% |        4259      6.14%     31.23% |        4298      6.20%     37.43% |        4285      6.18%     43.61% |        4305      6.21%     49.82% |        4344      6.27%     56.09% |        4272      6.16%     62.25% |        4319      6.23%     68.48% |        4346      6.27%     74.75% |        4313      6.22%     80.97% |        4409      6.36%     87.33% |        4438      6.40%     93.73% |        4345      6.27%    100.00%
system.ruby.L2Cache_Controller.M.L2_Replacement::total        69323                      
system.ruby.L2Cache_Controller.M.L2_Replacement_clean |        2936      6.35%      6.35% |        2818      6.10%     12.45% |        2766      5.99%     18.44% |        2851      6.17%     24.61% |        2801      6.06%     30.67% |        2843      6.15%     36.82% |        2884      6.24%     43.06% |        2945      6.37%     49.43% |        2973      6.43%     55.87% |        2820      6.10%     61.97% |        2902      6.28%     68.25% |        2876      6.22%     74.47% |        2990      6.47%     80.94% |        2960      6.41%     87.35% |        2912      6.30%     93.65% |        2936      6.35%    100.00%
system.ruby.L2Cache_Controller.M.L2_Replacement_clean::total        46213                      
system.ruby.L2Cache_Controller.MT.L1_GETS |          70      3.97%      3.97% |          70      3.97%      7.95% |          98      5.56%     13.51% |          98      5.56%     19.07% |          98      5.56%     24.63% |         140      7.95%     32.58% |         140      7.95%     40.52% |         140      7.95%     48.47% |         138      7.83%     56.30% |         138      7.83%     64.13% |         136      7.72%     71.85% |         132      7.49%     79.34% |         112      6.36%     85.70% |         112      6.36%     92.05% |          70      3.97%     96.03% |          70      3.97%    100.00%
system.ruby.L2Cache_Controller.MT.L1_GETS::total         1762                      
system.ruby.L2Cache_Controller.MT.L1_GETX |           0      0.00%      0.00% |           0      0.00%      0.00% |           0      0.00%      0.00% |           0      0.00%      0.00% |           0      0.00%      0.00% |           0      0.00%      0.00% |           0      0.00%      0.00% |           0      0.00%      0.00% |           1     12.50%     12.50% |           1     12.50%     25.00% |           2     25.00%     50.00% |           4     50.00%    100.00% |           0      0.00%    100.00% |           0      0.00%    100.00% |           0      0.00%    100.00% |           0      0.00%    100.00%
system.ruby.L2Cache_Controller.MT.L1_GETX::total            8                      
system.ruby.L2Cache_Controller.MT.L1_PUTX |       48578      6.24%      6.24% |       48705      6.25%     12.49% |       48211      6.19%     18.68% |       48703      6.25%     24.93% |       48152      6.18%     31.12% |       48068      6.17%     37.29% |       48286      6.20%     43.49% |       48693      6.25%     49.74% |       48662      6.25%     55.99% |       48199      6.19%     62.18% |       48583      6.24%     68.41% |       49388      6.34%     74.76% |       49117      6.31%     81.06% |       49177      6.31%     87.38% |       50198      6.45%     93.82% |       48125      6.18%    100.00%
system.ruby.L2Cache_Controller.MT.L1_PUTX::total       778845                      
system.ruby.L2Cache_Controller.MT.L2_Replacement |           7      7.61%      7.61% |           4      4.35%     11.96% |          10     10.87%     22.83% |           9      9.78%     32.61% |           6      6.52%     39.13% |           9      9.78%     48.91% |           6      6.52%     55.43% |           4      4.35%     59.78% |           9      9.78%     69.57% |           2      2.17%     71.74% |           5      5.43%     77.17% |           6      6.52%     83.70% |           4      4.35%     88.04% |           4      4.35%     92.39% |           6      6.52%     98.91% |           1      1.09%    100.00%
system.ruby.L2Cache_Controller.MT.L2_Replacement::total           92                      
system.ruby.L2Cache_Controller.MT.L2_Replacement_clean |          21      5.83%      5.83% |          24      6.67%     12.50% |          16      4.44%     16.94% |          19      5.28%     22.22% |          25      6.94%     29.17% |          20      5.56%     34.72% |          21      5.83%     40.56% |          25      6.94%     47.50% |          27      7.50%     55.00% |          25      6.94%     61.94% |          15      4.17%     66.11% |          15      4.17%     70.28% |          26      7.22%     77.50% |          31      8.61%     86.11% |          19      5.28%     91.39% |          31      8.61%    100.00%
system.ruby.L2Cache_Controller.MT.L2_Replacement_clean::total          360                      
system.ruby.L2Cache_Controller.M_I.L1_GET_INSTR |           0      0.00%      0.00% |           0      0.00%      0.00% |           1     50.00%     50.00% |           0      0.00%     50.00% |           0      0.00%     50.00% |           0      0.00%     50.00% |           0      0.00%     50.00% |           1     50.00%    100.00% |           0      0.00%    100.00% |           0      0.00%    100.00% |           0      0.00%    100.00% |           0      0.00%    100.00% |           0      0.00%    100.00% |           0      0.00%    100.00% |           0      0.00%    100.00% |           0      0.00%    100.00%
system.ruby.L2Cache_Controller.M_I.L1_GET_INSTR::total            2                      
system.ruby.L2Cache_Controller.M_I.L1_GETX |           0      0.00%      0.00% |           0      0.00%      0.00% |           0      0.00%      0.00% |           0      0.00%      0.00% |           1    100.00%    100.00% |           0      0.00%    100.00% |           0      0.00%    100.00% |           0      0.00%    100.00% |           0      0.00%    100.00% |           0      0.00%    100.00% |           0      0.00%    100.00% |           0      0.00%    100.00% |           0      0.00%    100.00% |           0      0.00%    100.00% |           0      0.00%    100.00% |           0      0.00%    100.00%
system.ruby.L2Cache_Controller.M_I.L1_GETX::total            1                      
system.ruby.L2Cache_Controller.M_I.Mem_Ack |        7904      6.31%      6.31% |        7774      6.21%     12.52% |        7732      6.17%     18.69% |        7803      6.23%     24.92% |        7673      6.13%     31.05% |        7792      6.22%     37.27% |        7812      6.24%     43.50% |        7850      6.27%     49.77% |        7978      6.37%     56.14% |        7586      6.06%     62.20% |        7738      6.18%     68.37% |        7810      6.24%     74.61% |        7916      6.32%     80.93% |        7982      6.37%     87.30% |        8021      6.40%     93.71% |        7884      6.29%    100.00%
system.ruby.L2Cache_Controller.M_I.Mem_Ack::total       125255                      
system.ruby.L2Cache_Controller.MT_I.WB_Data |           2      5.26%      5.26% |           2      5.26%     10.53% |           6     15.79%     26.32% |           5     13.16%     39.47% |           4     10.53%     50.00% |           6     15.79%     65.79% |           2      5.26%     71.05% |           1      2.63%     73.68% |           1      2.63%     76.32% |           0      0.00%     76.32% |           2      5.26%     81.58% |           2      5.26%     86.84% |           3      7.89%     94.74% |           0      0.00%     94.74% |           2      5.26%    100.00% |           0      0.00%    100.00%
system.ruby.L2Cache_Controller.MT_I.WB_Data::total           38                      
system.ruby.L2Cache_Controller.MT_I.Ack_all |           5      9.26%      9.26% |           2      3.70%     12.96% |           4      7.41%     20.37% |           4      7.41%     27.78% |           2      3.70%     31.48% |           3      5.56%     37.04% |           4      7.41%     44.44% |           3      5.56%     50.00% |           8     14.81%     64.81% |           2      3.70%     68.52% |           3      5.56%     74.07% |           4      7.41%     81.48% |           1      1.85%     83.33% |           4      7.41%     90.74% |           4      7.41%     98.15% |           1      1.85%    100.00%
system.ruby.L2Cache_Controller.MT_I.Ack_all::total           54                      
system.ruby.L2Cache_Controller.MCT_I.WB_Data |          20      6.02%      6.02% |          22      6.63%     12.65% |          16      4.82%     17.47% |          17      5.12%     22.59% |          22      6.63%     29.22% |          19      5.72%     34.94% |          19      5.72%     40.66% |          23      6.93%     47.59% |          23      6.93%     54.52% |          24      7.23%     61.75% |          13      3.92%     65.66% |          13      3.92%     69.58% |          23      6.93%     76.51% |          29      8.73%     85.24% |          19      5.72%     90.96% |          30      9.04%    100.00%
system.ruby.L2Cache_Controller.MCT_I.WB_Data::total          332                      
system.ruby.L2Cache_Controller.MCT_I.Ack_all |           1      3.57%      3.57% |           2      7.14%     10.71% |           0      0.00%     10.71% |           2      7.14%     17.86% |           3     10.71%     28.57% |           1      3.57%     32.14% |           2      7.14%     39.29% |           2      7.14%     46.43% |           4     14.29%     60.71% |           1      3.57%     64.29% |           2      7.14%     71.43% |           2      7.14%     78.57% |           3     10.71%     89.29% |           2      7.14%     96.43% |           0      0.00%     96.43% |           1      3.57%    100.00%
system.ruby.L2Cache_Controller.MCT_I.Ack_all::total           28                      
system.ruby.L2Cache_Controller.I_I.L1_GET_INSTR |           0      0.00%      0.00% |           0      0.00%      0.00% |           1    100.00%    100.00% |           0      0.00%    100.00% |           0      0.00%    100.00% |           0      0.00%    100.00% |           0      0.00%    100.00% |           0      0.00%    100.00% |           0      0.00%    100.00% |           0      0.00%    100.00% |           0      0.00%    100.00% |           0      0.00%    100.00% |           0      0.00%    100.00% |           0      0.00%    100.00% |           0      0.00%    100.00% |           0      0.00%    100.00%
system.ruby.L2Cache_Controller.I_I.L1_GET_INSTR::total            1                      
system.ruby.L2Cache_Controller.I_I.Ack_all |         568      6.15%      6.15% |         606      6.56%     12.70% |         615      6.65%     19.36% |         545      5.90%     25.25% |         581      6.29%     31.54% |         619      6.70%     38.23% |         616      6.66%     44.90% |         570      6.17%     51.07% |         624      6.75%     57.82% |         466      5.04%     62.86% |         494      5.34%     68.20% |         567      6.13%     74.34% |         582      6.30%     80.63% |         575      6.22%     86.85% |         646      6.99%     93.84% |         569      6.16%    100.00%
system.ruby.L2Cache_Controller.I_I.Ack_all::total         9243                      
system.ruby.L2Cache_Controller.S_I.Ack   |           3     12.50%     12.50% |           1      4.17%     16.67% |           2      8.33%     25.00% |           2      8.33%     33.33% |           1      4.17%     37.50% |           3     12.50%     50.00% |           0      0.00%     50.00% |           1      4.17%     54.17% |           1      4.17%     58.33% |           1      4.17%     62.50% |           3     12.50%     75.00% |           0      0.00%     75.00% |           1      4.17%     79.17% |           3     12.50%     91.67% |           0      0.00%     91.67% |           2      8.33%    100.00%
system.ruby.L2Cache_Controller.S_I.Ack::total           24                      
system.ruby.L2Cache_Controller.S_I.Ack_all |           3     12.50%     12.50% |           1      4.17%     16.67% |           2      8.33%     25.00% |           2      8.33%     33.33% |           1      4.17%     37.50% |           3     12.50%     50.00% |           0      0.00%     50.00% |           1      4.17%     54.17% |           1      4.17%     58.33% |           1      4.17%     62.50% |           3     12.50%     75.00% |           0      0.00%     75.00% |           1      4.17%     79.17% |           3     12.50%     91.67% |           0      0.00%     91.67% |           2      8.33%    100.00%
system.ruby.L2Cache_Controller.S_I.Ack_all::total           24                      
system.ruby.L2Cache_Controller.ISS.Mem_Data |       29315      6.27%      6.27% |       29052      6.21%     12.48% |       28828      6.17%     18.65% |       29225      6.25%     24.90% |       28947      6.19%     31.09% |       29137      6.23%     37.32% |       29250      6.26%     43.58% |       29257      6.26%     49.84% |       29378      6.28%     56.12% |       29151      6.23%     62.35% |       29226      6.25%     68.61% |       29300      6.27%     74.87% |       29470      6.30%     81.18% |       29441      6.30%     87.47% |       29292      6.26%     93.74% |       29283      6.26%    100.00%
system.ruby.L2Cache_Controller.ISS.Mem_Data::total       467552                      
system.ruby.L2Cache_Controller.IS.Mem_Data |        1362      6.41%      6.41% |        1366      6.43%     12.84% |        1501      7.07%     19.91% |        1293      6.09%     26.00% |        1345      6.33%     32.33% |        1345      6.33%     38.66% |        1279      6.02%     44.68% |        1294      6.09%     50.78% |        1364      6.42%     57.20% |        1165      5.48%     62.68% |        1249      5.88%     68.56% |        1271      5.98%     74.55% |        1237      5.82%     80.37% |        1302      6.13%     86.50% |        1517      7.14%     93.64% |        1350      6.36%    100.00%
system.ruby.L2Cache_Controller.IS.Mem_Data::total        21240                      
system.ruby.L2Cache_Controller.IM.Mem_Data |        9016      6.22%      6.22% |        9099      6.27%     12.49% |        9141      6.30%     18.80% |        9099      6.27%     25.07% |        9098      6.27%     31.34% |        9084      6.26%     37.61% |        9090      6.27%     43.88% |        9092      6.27%     50.15% |        9045      6.24%     56.38% |        9017      6.22%     62.60% |        9058      6.25%     68.85% |        9012      6.21%     75.06% |        9013      6.22%     81.28% |        9053      6.24%     87.52% |        9050      6.24%     93.76% |        9050      6.24%    100.00%
system.ruby.L2Cache_Controller.IM.Mem_Data::total       145017                      
system.ruby.L2Cache_Controller.SS_MB.Exclusive_Unblock |          42      3.93%      3.93% |          42      3.93%      7.85% |          70      6.54%     14.39% |          56      5.23%     19.63% |          56      5.23%     24.86% |          84      7.85%     32.71% |          84      7.85%     40.56% |          84      7.85%     48.41% |          83      7.76%     56.17% |          83      7.76%     63.93% |          82      7.66%     71.59% |          80      7.48%     79.07% |          70      6.54%     85.61% |          70      6.54%     92.15% |          42      3.93%     96.07% |          42      3.93%    100.00%
system.ruby.L2Cache_Controller.SS_MB.Exclusive_Unblock::total         1070                      
system.ruby.L2Cache_Controller.MT_MB.Exclusive_Unblock |       49502      6.24%      6.24% |       49629      6.25%     12.49% |       49132      6.19%     18.68% |       49641      6.25%     24.93% |       49089      6.18%     31.11% |       49020      6.17%     37.29% |       49238      6.20%     43.49% |       49642      6.25%     49.74% |       49603      6.25%     55.99% |       49150      6.19%     62.18% |       49536      6.24%     68.42% |       50344      6.34%     74.76% |       50054      6.31%     81.07% |       50112      6.31%     87.38% |       51122      6.44%     93.82% |       49046      6.18%    100.00%
system.ruby.L2Cache_Controller.MT_MB.Exclusive_Unblock::total       793860                      
system.ruby.L2Cache_Controller.MT_IIB.WB_Data |          70      4.00%      4.00% |          69      3.95%      7.95% |          98      5.60%     13.55% |          98      5.60%     19.15% |          97      5.55%     24.70% |         139      7.95%     32.65% |         138      7.89%     40.54% |         140      8.00%     48.54% |         136      7.78%     56.32% |         136      7.78%     64.09% |         136      7.78%     71.87% |         131      7.49%     79.36% |         112      6.40%     85.76% |         110      6.29%     92.05% |          69      3.95%     96.00% |          70      4.00%    100.00%
system.ruby.L2Cache_Controller.MT_IIB.WB_Data::total         1749                      
system.ruby.L2Cache_Controller.MT_IIB.Unblock |           0      0.00%      0.00% |           1      7.69%      7.69% |           0      0.00%      7.69% |           0      0.00%      7.69% |           1      7.69%     15.38% |           1      7.69%     23.08% |           2     15.38%     38.46% |           0      0.00%     38.46% |           2     15.38%     53.85% |           2     15.38%     69.23% |           0      0.00%     69.23% |           1      7.69%     76.92% |           0      0.00%     76.92% |           2     15.38%     92.31% |           1      7.69%    100.00% |           0      0.00%    100.00%
system.ruby.L2Cache_Controller.MT_IIB.Unblock::total           13                      
system.ruby.L2Cache_Controller.MT_IB.WB_Data |           0      0.00%      0.00% |           1      7.69%      7.69% |           0      0.00%      7.69% |           0      0.00%      7.69% |           1      7.69%     15.38% |           1      7.69%     23.08% |           2     15.38%     38.46% |           0      0.00%     38.46% |           2     15.38%     53.85% |           2     15.38%     69.23% |           0      0.00%     69.23% |           1      7.69%     76.92% |           0      0.00%     76.92% |           2     15.38%     92.31% |           1      7.69%    100.00% |           0      0.00%    100.00%
system.ruby.L2Cache_Controller.MT_IB.WB_Data::total           13                      
system.ruby.L2Cache_Controller.MT_SB.Unblock |          70      4.00%      4.00% |          69      3.95%      7.95% |          98      5.60%     13.55% |          98      5.60%     19.15% |          97      5.55%     24.70% |         139      7.95%     32.65% |         138      7.89%     40.54% |         140      8.00%     48.54% |         136      7.78%     56.32% |         136      7.78%     64.09% |         136      7.78%     71.87% |         131      7.49%     79.36% |         112      6.40%     85.76% |         110      6.29%     92.05% |          69      3.95%     96.00% |          70      4.00%    100.00%
system.ruby.L2Cache_Controller.MT_SB.Unblock::total         1749                      

---------- End Simulation Statistics   ----------
