
---------- Begin Simulation Statistics ----------
sim_seconds                                  0.039490                       # Number of seconds simulated
sim_ticks                                 39490312500                       # Number of ticks simulated
final_tick                                39490312500                       # Number of ticks from beginning of simulation (restored from checkpoints and never reset)
sim_freq                                 1000000000000                       # Frequency of simulated ticks
host_inst_rate                                  90925                       # Simulator instruction rate (inst/s)
host_op_rate                                   156340                       # Simulator op (including micro ops) rate (op/s)
host_tick_rate                               26628613                       # Simulator tick rate (ticks/s)
host_mem_usage                                1155348                       # Number of bytes of host memory used
host_seconds                                  1483.00                       # Real time elapsed on the host
sim_insts                                   134841578                       # Number of instructions simulated
sim_ops                                     231852070                       # Number of ops (including micro ops) simulated
system.voltage_domain.voltage                       1                       # Voltage in Volts
system.clk_domain.clock                          1000                       # Clock period in ticks
system.mem_ctrls0.pwrStateResidencyTicks::UNDEFINED  39490312500                       # Cumulative time (in ticks) in various power states
system.mem_ctrls0.bytes_read::ruby.dir_cntrl0      3484544                       # Number of bytes read from this memory
system.mem_ctrls0.bytes_read::total           3484544                       # Number of bytes read from this memory
system.mem_ctrls0.num_reads::ruby.dir_cntrl0        54446                       # Number of read requests responded to by this memory
system.mem_ctrls0.num_reads::total              54446                       # Number of read requests responded to by this memory
system.mem_ctrls0.bw_read::ruby.dir_cntrl0     88237944                       # Total read bandwidth from this memory (bytes/s)
system.mem_ctrls0.bw_read::total             88237944                       # Total read bandwidth from this memory (bytes/s)
system.mem_ctrls0.bw_total::ruby.dir_cntrl0     88237944                       # Total bandwidth to/from this memory (bytes/s)
system.mem_ctrls0.bw_total::total            88237944                       # Total bandwidth to/from this memory (bytes/s)
system.mem_ctrls0.readReqs                      54446                       # Number of read requests accepted
system.mem_ctrls0.avgNetLat                      0.00                       # Average network latency to DRAM controller
system.mem_ctrls0.writeReqs                         0                       # Number of write requests accepted
system.mem_ctrls0.readBursts                    54446                       # Number of DRAM read bursts, including those serviced by the write queue
system.mem_ctrls0.writeBursts                       0                       # Number of DRAM write bursts, including those merged in the write queue
system.mem_ctrls0.bytesReadDRAM               3484544                       # Total number of bytes read from DRAM
system.mem_ctrls0.bytesReadWrQ                      0                       # Total number of bytes read from write queue
system.mem_ctrls0.bytesWritten                      0                       # Total number of bytes written to DRAM
system.mem_ctrls0.bytesReadSys                3484544                       # Total read bytes from the system interface side
system.mem_ctrls0.bytesWrittenSys                   0                       # Total written bytes from the system interface side
system.mem_ctrls0.servicedByWrQ                     0                       # Number of DRAM read bursts serviced by the write queue
system.mem_ctrls0.mergedWrBursts                    0                       # Number of DRAM write bursts merged with an existing one
system.mem_ctrls0.neitherReadNorWriteReqs            0                       # Number of requests that are neither read nor write
system.mem_ctrls0.perBankRdBursts::0             4100                       # Per bank write bursts
system.mem_ctrls0.perBankRdBursts::1             3821                       # Per bank write bursts
system.mem_ctrls0.perBankRdBursts::2             3574                       # Per bank write bursts
system.mem_ctrls0.perBankRdBursts::3             3577                       # Per bank write bursts
system.mem_ctrls0.perBankRdBursts::4             3455                       # Per bank write bursts
system.mem_ctrls0.perBankRdBursts::5             3137                       # Per bank write bursts
system.mem_ctrls0.perBankRdBursts::6             3132                       # Per bank write bursts
system.mem_ctrls0.perBankRdBursts::7             3206                       # Per bank write bursts
system.mem_ctrls0.perBankRdBursts::8             2674                       # Per bank write bursts
system.mem_ctrls0.perBankRdBursts::9             2908                       # Per bank write bursts
system.mem_ctrls0.perBankRdBursts::10            3166                       # Per bank write bursts
system.mem_ctrls0.perBankRdBursts::11            3068                       # Per bank write bursts
system.mem_ctrls0.perBankRdBursts::12            3439                       # Per bank write bursts
system.mem_ctrls0.perBankRdBursts::13            3786                       # Per bank write bursts
system.mem_ctrls0.perBankRdBursts::14            3438                       # Per bank write bursts
system.mem_ctrls0.perBankRdBursts::15            3965                       # Per bank write bursts
system.mem_ctrls0.perBankWrBursts::0                0                       # Per bank write bursts
system.mem_ctrls0.perBankWrBursts::1                0                       # Per bank write bursts
system.mem_ctrls0.perBankWrBursts::2                0                       # Per bank write bursts
system.mem_ctrls0.perBankWrBursts::3                0                       # Per bank write bursts
system.mem_ctrls0.perBankWrBursts::4                0                       # Per bank write bursts
system.mem_ctrls0.perBankWrBursts::5                0                       # Per bank write bursts
system.mem_ctrls0.perBankWrBursts::6                0                       # Per bank write bursts
system.mem_ctrls0.perBankWrBursts::7                0                       # Per bank write bursts
system.mem_ctrls0.perBankWrBursts::8                0                       # Per bank write bursts
system.mem_ctrls0.perBankWrBursts::9                0                       # Per bank write bursts
system.mem_ctrls0.perBankWrBursts::10               0                       # Per bank write bursts
system.mem_ctrls0.perBankWrBursts::11               0                       # Per bank write bursts
system.mem_ctrls0.perBankWrBursts::12               0                       # Per bank write bursts
system.mem_ctrls0.perBankWrBursts::13               0                       # Per bank write bursts
system.mem_ctrls0.perBankWrBursts::14               0                       # Per bank write bursts
system.mem_ctrls0.perBankWrBursts::15               0                       # Per bank write bursts
system.mem_ctrls0.numRdRetry                        0                       # Number of times read queue was full causing retry
system.mem_ctrls0.numWrRetry                        0                       # Number of times write queue was full causing retry
system.mem_ctrls0.totGap                  39489290500                       # Total gap between requests
system.mem_ctrls0.readPktSize::0                    0                       # Read request sizes (log2)
system.mem_ctrls0.readPktSize::1                    0                       # Read request sizes (log2)
system.mem_ctrls0.readPktSize::2                    0                       # Read request sizes (log2)
system.mem_ctrls0.readPktSize::3                    0                       # Read request sizes (log2)
system.mem_ctrls0.readPktSize::4                    0                       # Read request sizes (log2)
system.mem_ctrls0.readPktSize::5                    0                       # Read request sizes (log2)
system.mem_ctrls0.readPktSize::6                54446                       # Read request sizes (log2)
system.mem_ctrls0.writePktSize::0                   0                       # Write request sizes (log2)
system.mem_ctrls0.writePktSize::1                   0                       # Write request sizes (log2)
system.mem_ctrls0.writePktSize::2                   0                       # Write request sizes (log2)
system.mem_ctrls0.writePktSize::3                   0                       # Write request sizes (log2)
system.mem_ctrls0.writePktSize::4                   0                       # Write request sizes (log2)
system.mem_ctrls0.writePktSize::5                   0                       # Write request sizes (log2)
system.mem_ctrls0.writePktSize::6                   0                       # Write request sizes (log2)
system.mem_ctrls0.rdQLenPdf::0                  39748                       # What read queue length does an incoming req see
system.mem_ctrls0.rdQLenPdf::1                   9143                       # What read queue length does an incoming req see
system.mem_ctrls0.rdQLenPdf::2                   3455                       # What read queue length does an incoming req see
system.mem_ctrls0.rdQLenPdf::3                   1314                       # What read queue length does an incoming req see
system.mem_ctrls0.rdQLenPdf::4                    490                       # What read queue length does an incoming req see
system.mem_ctrls0.rdQLenPdf::5                    190                       # What read queue length does an incoming req see
system.mem_ctrls0.rdQLenPdf::6                     72                       # What read queue length does an incoming req see
system.mem_ctrls0.rdQLenPdf::7                     22                       # What read queue length does an incoming req see
system.mem_ctrls0.rdQLenPdf::8                      6                       # What read queue length does an incoming req see
system.mem_ctrls0.rdQLenPdf::9                      4                       # What read queue length does an incoming req see
system.mem_ctrls0.rdQLenPdf::10                     2                       # What read queue length does an incoming req see
system.mem_ctrls0.rdQLenPdf::11                     0                       # What read queue length does an incoming req see
system.mem_ctrls0.rdQLenPdf::12                     0                       # What read queue length does an incoming req see
system.mem_ctrls0.rdQLenPdf::13                     0                       # What read queue length does an incoming req see
system.mem_ctrls0.rdQLenPdf::14                     0                       # What read queue length does an incoming req see
system.mem_ctrls0.rdQLenPdf::15                     0                       # What read queue length does an incoming req see
system.mem_ctrls0.rdQLenPdf::16                     0                       # What read queue length does an incoming req see
system.mem_ctrls0.rdQLenPdf::17                     0                       # What read queue length does an incoming req see
system.mem_ctrls0.rdQLenPdf::18                     0                       # What read queue length does an incoming req see
system.mem_ctrls0.rdQLenPdf::19                     0                       # What read queue length does an incoming req see
system.mem_ctrls0.rdQLenPdf::20                     0                       # What read queue length does an incoming req see
system.mem_ctrls0.rdQLenPdf::21                     0                       # What read queue length does an incoming req see
system.mem_ctrls0.rdQLenPdf::22                     0                       # What read queue length does an incoming req see
system.mem_ctrls0.rdQLenPdf::23                     0                       # What read queue length does an incoming req see
system.mem_ctrls0.rdQLenPdf::24                     0                       # What read queue length does an incoming req see
system.mem_ctrls0.rdQLenPdf::25                     0                       # What read queue length does an incoming req see
system.mem_ctrls0.rdQLenPdf::26                     0                       # What read queue length does an incoming req see
system.mem_ctrls0.rdQLenPdf::27                     0                       # What read queue length does an incoming req see
system.mem_ctrls0.rdQLenPdf::28                     0                       # What read queue length does an incoming req see
system.mem_ctrls0.rdQLenPdf::29                     0                       # What read queue length does an incoming req see
system.mem_ctrls0.rdQLenPdf::30                     0                       # What read queue length does an incoming req see
system.mem_ctrls0.rdQLenPdf::31                     0                       # What read queue length does an incoming req see
system.mem_ctrls0.wrQLenPdf::0                      0                       # What write queue length does an incoming req see
system.mem_ctrls0.wrQLenPdf::1                      0                       # What write queue length does an incoming req see
system.mem_ctrls0.wrQLenPdf::2                      0                       # What write queue length does an incoming req see
system.mem_ctrls0.wrQLenPdf::3                      0                       # What write queue length does an incoming req see
system.mem_ctrls0.wrQLenPdf::4                      0                       # What write queue length does an incoming req see
system.mem_ctrls0.wrQLenPdf::5                      0                       # What write queue length does an incoming req see
system.mem_ctrls0.wrQLenPdf::6                      0                       # What write queue length does an incoming req see
system.mem_ctrls0.wrQLenPdf::7                      0                       # What write queue length does an incoming req see
system.mem_ctrls0.wrQLenPdf::8                      0                       # What write queue length does an incoming req see
system.mem_ctrls0.wrQLenPdf::9                      0                       # What write queue length does an incoming req see
system.mem_ctrls0.wrQLenPdf::10                     0                       # What write queue length does an incoming req see
system.mem_ctrls0.wrQLenPdf::11                     0                       # What write queue length does an incoming req see
system.mem_ctrls0.wrQLenPdf::12                     0                       # What write queue length does an incoming req see
system.mem_ctrls0.wrQLenPdf::13                     0                       # What write queue length does an incoming req see
system.mem_ctrls0.wrQLenPdf::14                     0                       # What write queue length does an incoming req see
system.mem_ctrls0.wrQLenPdf::15                     0                       # What write queue length does an incoming req see
system.mem_ctrls0.wrQLenPdf::16                     0                       # What write queue length does an incoming req see
system.mem_ctrls0.wrQLenPdf::17                     0                       # What write queue length does an incoming req see
system.mem_ctrls0.wrQLenPdf::18                     0                       # What write queue length does an incoming req see
system.mem_ctrls0.wrQLenPdf::19                     0                       # What write queue length does an incoming req see
system.mem_ctrls0.wrQLenPdf::20                     0                       # What write queue length does an incoming req see
system.mem_ctrls0.wrQLenPdf::21                     0                       # What write queue length does an incoming req see
system.mem_ctrls0.wrQLenPdf::22                     0                       # What write queue length does an incoming req see
system.mem_ctrls0.wrQLenPdf::23                     0                       # What write queue length does an incoming req see
system.mem_ctrls0.wrQLenPdf::24                     0                       # What write queue length does an incoming req see
system.mem_ctrls0.wrQLenPdf::25                     0                       # What write queue length does an incoming req see
system.mem_ctrls0.wrQLenPdf::26                     0                       # What write queue length does an incoming req see
system.mem_ctrls0.wrQLenPdf::27                     0                       # What write queue length does an incoming req see
system.mem_ctrls0.wrQLenPdf::28                     0                       # What write queue length does an incoming req see
system.mem_ctrls0.wrQLenPdf::29                     0                       # What write queue length does an incoming req see
system.mem_ctrls0.wrQLenPdf::30                     0                       # What write queue length does an incoming req see
system.mem_ctrls0.wrQLenPdf::31                     0                       # What write queue length does an incoming req see
system.mem_ctrls0.wrQLenPdf::32                     0                       # What write queue length does an incoming req see
system.mem_ctrls0.wrQLenPdf::33                     0                       # What write queue length does an incoming req see
system.mem_ctrls0.wrQLenPdf::34                     0                       # What write queue length does an incoming req see
system.mem_ctrls0.wrQLenPdf::35                     0                       # What write queue length does an incoming req see
system.mem_ctrls0.wrQLenPdf::36                     0                       # What write queue length does an incoming req see
system.mem_ctrls0.wrQLenPdf::37                     0                       # What write queue length does an incoming req see
system.mem_ctrls0.wrQLenPdf::38                     0                       # What write queue length does an incoming req see
system.mem_ctrls0.wrQLenPdf::39                     0                       # What write queue length does an incoming req see
system.mem_ctrls0.wrQLenPdf::40                     0                       # What write queue length does an incoming req see
system.mem_ctrls0.wrQLenPdf::41                     0                       # What write queue length does an incoming req see
system.mem_ctrls0.wrQLenPdf::42                     0                       # What write queue length does an incoming req see
system.mem_ctrls0.wrQLenPdf::43                     0                       # What write queue length does an incoming req see
system.mem_ctrls0.wrQLenPdf::44                     0                       # What write queue length does an incoming req see
system.mem_ctrls0.wrQLenPdf::45                     0                       # What write queue length does an incoming req see
system.mem_ctrls0.wrQLenPdf::46                     0                       # What write queue length does an incoming req see
system.mem_ctrls0.wrQLenPdf::47                     0                       # What write queue length does an incoming req see
system.mem_ctrls0.wrQLenPdf::48                     0                       # What write queue length does an incoming req see
system.mem_ctrls0.wrQLenPdf::49                     0                       # What write queue length does an incoming req see
system.mem_ctrls0.wrQLenPdf::50                     0                       # What write queue length does an incoming req see
system.mem_ctrls0.wrQLenPdf::51                     0                       # What write queue length does an incoming req see
system.mem_ctrls0.wrQLenPdf::52                     0                       # What write queue length does an incoming req see
system.mem_ctrls0.wrQLenPdf::53                     0                       # What write queue length does an incoming req see
system.mem_ctrls0.wrQLenPdf::54                     0                       # What write queue length does an incoming req see
system.mem_ctrls0.wrQLenPdf::55                     0                       # What write queue length does an incoming req see
system.mem_ctrls0.wrQLenPdf::56                     0                       # What write queue length does an incoming req see
system.mem_ctrls0.wrQLenPdf::57                     0                       # What write queue length does an incoming req see
system.mem_ctrls0.wrQLenPdf::58                     0                       # What write queue length does an incoming req see
system.mem_ctrls0.wrQLenPdf::59                     0                       # What write queue length does an incoming req see
system.mem_ctrls0.wrQLenPdf::60                     0                       # What write queue length does an incoming req see
system.mem_ctrls0.wrQLenPdf::61                     0                       # What write queue length does an incoming req see
system.mem_ctrls0.wrQLenPdf::62                     0                       # What write queue length does an incoming req see
system.mem_ctrls0.wrQLenPdf::63                     0                       # What write queue length does an incoming req see
system.mem_ctrls0.bytesPerActivate::samples        32776                       # Bytes accessed per row activation
system.mem_ctrls0.bytesPerActivate::mean   106.294362                       # Bytes accessed per row activation
system.mem_ctrls0.bytesPerActivate::gmean    81.020191                       # Bytes accessed per row activation
system.mem_ctrls0.bytesPerActivate::stdev   120.566973                       # Bytes accessed per row activation
system.mem_ctrls0.bytesPerActivate::0-127        27260     83.17%     83.17% # Bytes accessed per row activation
system.mem_ctrls0.bytesPerActivate::128-255         2669      8.14%     91.31% # Bytes accessed per row activation
system.mem_ctrls0.bytesPerActivate::256-383          422      1.29%     92.60% # Bytes accessed per row activation
system.mem_ctrls0.bytesPerActivate::384-511          284      0.87%     93.47% # Bytes accessed per row activation
system.mem_ctrls0.bytesPerActivate::512-639         2038      6.22%     99.69% # Bytes accessed per row activation
system.mem_ctrls0.bytesPerActivate::640-767           82      0.25%     99.94% # Bytes accessed per row activation
system.mem_ctrls0.bytesPerActivate::768-895            8      0.02%     99.96% # Bytes accessed per row activation
system.mem_ctrls0.bytesPerActivate::896-1023            2      0.01%     99.97% # Bytes accessed per row activation
system.mem_ctrls0.bytesPerActivate::1024-1151           11      0.03%    100.00% # Bytes accessed per row activation
system.mem_ctrls0.bytesPerActivate::total        32776                       # Bytes accessed per row activation
system.mem_ctrls0.totQLat                  1756794500                       # Total ticks spent queuing
system.mem_ctrls0.totMemAccLat             2777657000                       # Total ticks spent from burst creation until serviced by the DRAM
system.mem_ctrls0.totBusLat                 272230000                       # Total ticks spent in databus transfers
system.mem_ctrls0.avgQLat                    32266.73                       # Average queueing delay per DRAM burst
system.mem_ctrls0.avgBusLat                   5000.00                       # Average bus latency per DRAM burst
system.mem_ctrls0.avgMemAccLat               51016.73                       # Average memory access latency per DRAM burst
system.mem_ctrls0.avgRdBW                       88.24                       # Average DRAM read bandwidth in MiByte/s
system.mem_ctrls0.avgWrBW                        0.00                       # Average achieved write bandwidth in MiByte/s
system.mem_ctrls0.avgRdBWSys                    88.24                       # Average system read bandwidth in MiByte/s
system.mem_ctrls0.avgWrBWSys                     0.00                       # Average system write bandwidth in MiByte/s
system.mem_ctrls0.peakBW                     12800.00                       # Theoretical peak bandwidth in MiByte/s
system.mem_ctrls0.busUtil                        0.69                       # Data bus utilization in percentage
system.mem_ctrls0.busUtilRead                    0.69                       # Data bus utilization in percentage for reads
system.mem_ctrls0.busUtilWrite                   0.00                       # Data bus utilization in percentage for writes
system.mem_ctrls0.avgRdQLen                      1.06                       # Average read queue length when enqueuing
system.mem_ctrls0.avgWrQLen                      0.00                       # Average write queue length when enqueuing
system.mem_ctrls0.readRowHits                   21665                       # Number of row buffer hits during reads
system.mem_ctrls0.writeRowHits                      0                       # Number of row buffer hits during writes
system.mem_ctrls0.readRowHitRate                39.79                       # Row buffer hit rate for reads
system.mem_ctrls0.writeRowHitRate                 nan                       # Row buffer hit rate for writes
system.mem_ctrls0.avgGap                    725292.78                       # Average gap between requests
system.mem_ctrls0.pageHitRate                   39.79                       # Row buffer hit rate, read and write combined
system.mem_ctrls0_0.actEnergy               105943320                       # Energy for activate commands per rank (pJ)
system.mem_ctrls0_0.preEnergy                56302620                       # Energy for precharge commands per rank (pJ)
system.mem_ctrls0_0.readEnergy              199934280                       # Energy for read commands per rank (pJ)
system.mem_ctrls0_0.writeEnergy                     0                       # Energy for write commands per rank (pJ)
system.mem_ctrls0_0.refreshEnergy        1389701040.000000                       # Energy for refresh commands per rank (pJ)
system.mem_ctrls0_0.actBackEnergy           676290180                       # Energy for active background per rank (pJ)
system.mem_ctrls0_0.preBackEnergy            32370240                       # Energy for precharge background per rank (pJ)
system.mem_ctrls0_0.actPowerDownEnergy     6925909260                       # Energy for active power-down per rank (pJ)
system.mem_ctrls0_0.prePowerDownEnergy      242228640                       # Energy for precharge power-down per rank (pJ)
system.mem_ctrls0_0.selfRefreshEnergy      5322041745                       # Energy for self refresh per rank (pJ)
system.mem_ctrls0_0.totalEnergy           14950769925                       # Total energy per rank (pJ)
system.mem_ctrls0_0.averagePower           378.593356                       # Core power per rank (mW)
system.mem_ctrls0_0.totalIdleTime         37921437000                       # Total Idle time Per DRAM Rank
system.mem_ctrls0_0.memoryStateTime::IDLE     21192750                       # Time in different power states
system.mem_ctrls0_0.memoryStateTime::REF    588046000                       # Time in different power states
system.mem_ctrls0_0.memoryStateTime::SREF  22103614250                       # Time in different power states
system.mem_ctrls0_0.memoryStateTime::PRE_PDN    630854250                       # Time in different power states
system.mem_ctrls0_0.memoryStateTime::ACT    958137500                       # Time in different power states
system.mem_ctrls0_0.memoryStateTime::ACT_PDN  15188467750                       # Time in different power states
system.mem_ctrls0_1.actEnergy               128113020                       # Energy for activate commands per rank (pJ)
system.mem_ctrls0_1.preEnergy                68082300                       # Energy for precharge commands per rank (pJ)
system.mem_ctrls0_1.readEnergy              188810160                       # Energy for read commands per rank (pJ)
system.mem_ctrls0_1.writeEnergy                     0                       # Energy for write commands per rank (pJ)
system.mem_ctrls0_1.refreshEnergy        998790000.000000                       # Energy for refresh commands per rank (pJ)
system.mem_ctrls0_1.actBackEnergy           602690070                       # Energy for active background per rank (pJ)
system.mem_ctrls0_1.preBackEnergy            24260160                       # Energy for precharge background per rank (pJ)
system.mem_ctrls0_1.actPowerDownEnergy     4731760380                       # Energy for active power-down per rank (pJ)
system.mem_ctrls0_1.prePowerDownEnergy      255226560                       # Energy for precharge power-down per rank (pJ)
system.mem_ctrls0_1.selfRefreshEnergy      6513061980                       # Energy for self refresh per rank (pJ)
system.mem_ctrls0_1.totalEnergy           13510794630                       # Total energy per rank (pJ)
system.mem_ctrls0_1.averagePower           342.129342                       # Core power per rank (mW)
system.mem_ctrls0_1.totalIdleTime         38104812000                       # Total Idle time Per DRAM Rank
system.mem_ctrls0_1.memoryStateTime::IDLE     17551500                       # Time in different power states
system.mem_ctrls0_1.memoryStateTime::REF    422698000                       # Time in different power states
system.mem_ctrls0_1.memoryStateTime::SREF  27064122250                       # Time in different power states
system.mem_ctrls0_1.memoryStateTime::PRE_PDN    664607500                       # Time in different power states
system.mem_ctrls0_1.memoryStateTime::ACT    944348250                       # Time in different power states
system.mem_ctrls0_1.memoryStateTime::ACT_PDN  10376985000                       # Time in different power states
system.mem_ctrls1.pwrStateResidencyTicks::UNDEFINED  39490312500                       # Cumulative time (in ticks) in various power states
system.mem_ctrls1.bytes_read::ruby.dir_cntrl1      3463936                       # Number of bytes read from this memory
system.mem_ctrls1.bytes_read::total           3463936                       # Number of bytes read from this memory
system.mem_ctrls1.num_reads::ruby.dir_cntrl1        54124                       # Number of read requests responded to by this memory
system.mem_ctrls1.num_reads::total              54124                       # Number of read requests responded to by this memory
system.mem_ctrls1.bw_read::ruby.dir_cntrl1     87716095                       # Total read bandwidth from this memory (bytes/s)
system.mem_ctrls1.bw_read::total             87716095                       # Total read bandwidth from this memory (bytes/s)
system.mem_ctrls1.bw_total::ruby.dir_cntrl1     87716095                       # Total bandwidth to/from this memory (bytes/s)
system.mem_ctrls1.bw_total::total            87716095                       # Total bandwidth to/from this memory (bytes/s)
system.mem_ctrls1.readReqs                      54124                       # Number of read requests accepted
system.mem_ctrls1.avgNetLat                      0.00                       # Average network latency to DRAM controller
system.mem_ctrls1.writeReqs                         0                       # Number of write requests accepted
system.mem_ctrls1.readBursts                    54124                       # Number of DRAM read bursts, including those serviced by the write queue
system.mem_ctrls1.writeBursts                       0                       # Number of DRAM write bursts, including those merged in the write queue
system.mem_ctrls1.bytesReadDRAM               3463936                       # Total number of bytes read from DRAM
system.mem_ctrls1.bytesReadWrQ                      0                       # Total number of bytes read from write queue
system.mem_ctrls1.bytesWritten                      0                       # Total number of bytes written to DRAM
system.mem_ctrls1.bytesReadSys                3463936                       # Total read bytes from the system interface side
system.mem_ctrls1.bytesWrittenSys                   0                       # Total written bytes from the system interface side
system.mem_ctrls1.servicedByWrQ                     0                       # Number of DRAM read bursts serviced by the write queue
system.mem_ctrls1.mergedWrBursts                    0                       # Number of DRAM write bursts merged with an existing one
system.mem_ctrls1.neitherReadNorWriteReqs            0                       # Number of requests that are neither read nor write
system.mem_ctrls1.perBankRdBursts::0             4035                       # Per bank write bursts
system.mem_ctrls1.perBankRdBursts::1             3790                       # Per bank write bursts
system.mem_ctrls1.perBankRdBursts::2             3589                       # Per bank write bursts
system.mem_ctrls1.perBankRdBursts::3             3521                       # Per bank write bursts
system.mem_ctrls1.perBankRdBursts::4             3415                       # Per bank write bursts
system.mem_ctrls1.perBankRdBursts::5             3138                       # Per bank write bursts
system.mem_ctrls1.perBankRdBursts::6             3085                       # Per bank write bursts
system.mem_ctrls1.perBankRdBursts::7             3206                       # Per bank write bursts
system.mem_ctrls1.perBankRdBursts::8             2650                       # Per bank write bursts
system.mem_ctrls1.perBankRdBursts::9             2900                       # Per bank write bursts
system.mem_ctrls1.perBankRdBursts::10            3137                       # Per bank write bursts
system.mem_ctrls1.perBankRdBursts::11            3060                       # Per bank write bursts
system.mem_ctrls1.perBankRdBursts::12            3443                       # Per bank write bursts
system.mem_ctrls1.perBankRdBursts::13            3781                       # Per bank write bursts
system.mem_ctrls1.perBankRdBursts::14            3441                       # Per bank write bursts
system.mem_ctrls1.perBankRdBursts::15            3933                       # Per bank write bursts
system.mem_ctrls1.perBankWrBursts::0                0                       # Per bank write bursts
system.mem_ctrls1.perBankWrBursts::1                0                       # Per bank write bursts
system.mem_ctrls1.perBankWrBursts::2                0                       # Per bank write bursts
system.mem_ctrls1.perBankWrBursts::3                0                       # Per bank write bursts
system.mem_ctrls1.perBankWrBursts::4                0                       # Per bank write bursts
system.mem_ctrls1.perBankWrBursts::5                0                       # Per bank write bursts
system.mem_ctrls1.perBankWrBursts::6                0                       # Per bank write bursts
system.mem_ctrls1.perBankWrBursts::7                0                       # Per bank write bursts
system.mem_ctrls1.perBankWrBursts::8                0                       # Per bank write bursts
system.mem_ctrls1.perBankWrBursts::9                0                       # Per bank write bursts
system.mem_ctrls1.perBankWrBursts::10               0                       # Per bank write bursts
system.mem_ctrls1.perBankWrBursts::11               0                       # Per bank write bursts
system.mem_ctrls1.perBankWrBursts::12               0                       # Per bank write bursts
system.mem_ctrls1.perBankWrBursts::13               0                       # Per bank write bursts
system.mem_ctrls1.perBankWrBursts::14               0                       # Per bank write bursts
system.mem_ctrls1.perBankWrBursts::15               0                       # Per bank write bursts
system.mem_ctrls1.numRdRetry                        0                       # Number of times read queue was full causing retry
system.mem_ctrls1.numWrRetry                        0                       # Number of times write queue was full causing retry
system.mem_ctrls1.totGap                  39489738500                       # Total gap between requests
system.mem_ctrls1.readPktSize::0                    0                       # Read request sizes (log2)
system.mem_ctrls1.readPktSize::1                    0                       # Read request sizes (log2)
system.mem_ctrls1.readPktSize::2                    0                       # Read request sizes (log2)
system.mem_ctrls1.readPktSize::3                    0                       # Read request sizes (log2)
system.mem_ctrls1.readPktSize::4                    0                       # Read request sizes (log2)
system.mem_ctrls1.readPktSize::5                    0                       # Read request sizes (log2)
system.mem_ctrls1.readPktSize::6                54124                       # Read request sizes (log2)
system.mem_ctrls1.writePktSize::0                   0                       # Write request sizes (log2)
system.mem_ctrls1.writePktSize::1                   0                       # Write request sizes (log2)
system.mem_ctrls1.writePktSize::2                   0                       # Write request sizes (log2)
system.mem_ctrls1.writePktSize::3                   0                       # Write request sizes (log2)
system.mem_ctrls1.writePktSize::4                   0                       # Write request sizes (log2)
system.mem_ctrls1.writePktSize::5                   0                       # Write request sizes (log2)
system.mem_ctrls1.writePktSize::6                   0                       # Write request sizes (log2)
system.mem_ctrls1.rdQLenPdf::0                  39653                       # What read queue length does an incoming req see
system.mem_ctrls1.rdQLenPdf::1                   9089                       # What read queue length does an incoming req see
system.mem_ctrls1.rdQLenPdf::2                   3333                       # What read queue length does an incoming req see
system.mem_ctrls1.rdQLenPdf::3                   1263                       # What read queue length does an incoming req see
system.mem_ctrls1.rdQLenPdf::4                    475                       # What read queue length does an incoming req see
system.mem_ctrls1.rdQLenPdf::5                    193                       # What read queue length does an incoming req see
system.mem_ctrls1.rdQLenPdf::6                     62                       # What read queue length does an incoming req see
system.mem_ctrls1.rdQLenPdf::7                     32                       # What read queue length does an incoming req see
system.mem_ctrls1.rdQLenPdf::8                     12                       # What read queue length does an incoming req see
system.mem_ctrls1.rdQLenPdf::9                      5                       # What read queue length does an incoming req see
system.mem_ctrls1.rdQLenPdf::10                     3                       # What read queue length does an incoming req see
system.mem_ctrls1.rdQLenPdf::11                     2                       # What read queue length does an incoming req see
system.mem_ctrls1.rdQLenPdf::12                     1                       # What read queue length does an incoming req see
system.mem_ctrls1.rdQLenPdf::13                     1                       # What read queue length does an incoming req see
system.mem_ctrls1.rdQLenPdf::14                     0                       # What read queue length does an incoming req see
system.mem_ctrls1.rdQLenPdf::15                     0                       # What read queue length does an incoming req see
system.mem_ctrls1.rdQLenPdf::16                     0                       # What read queue length does an incoming req see
system.mem_ctrls1.rdQLenPdf::17                     0                       # What read queue length does an incoming req see
system.mem_ctrls1.rdQLenPdf::18                     0                       # What read queue length does an incoming req see
system.mem_ctrls1.rdQLenPdf::19                     0                       # What read queue length does an incoming req see
system.mem_ctrls1.rdQLenPdf::20                     0                       # What read queue length does an incoming req see
system.mem_ctrls1.rdQLenPdf::21                     0                       # What read queue length does an incoming req see
system.mem_ctrls1.rdQLenPdf::22                     0                       # What read queue length does an incoming req see
system.mem_ctrls1.rdQLenPdf::23                     0                       # What read queue length does an incoming req see
system.mem_ctrls1.rdQLenPdf::24                     0                       # What read queue length does an incoming req see
system.mem_ctrls1.rdQLenPdf::25                     0                       # What read queue length does an incoming req see
system.mem_ctrls1.rdQLenPdf::26                     0                       # What read queue length does an incoming req see
system.mem_ctrls1.rdQLenPdf::27                     0                       # What read queue length does an incoming req see
system.mem_ctrls1.rdQLenPdf::28                     0                       # What read queue length does an incoming req see
system.mem_ctrls1.rdQLenPdf::29                     0                       # What read queue length does an incoming req see
system.mem_ctrls1.rdQLenPdf::30                     0                       # What read queue length does an incoming req see
system.mem_ctrls1.rdQLenPdf::31                     0                       # What read queue length does an incoming req see
system.mem_ctrls1.wrQLenPdf::0                      0                       # What write queue length does an incoming req see
system.mem_ctrls1.wrQLenPdf::1                      0                       # What write queue length does an incoming req see
system.mem_ctrls1.wrQLenPdf::2                      0                       # What write queue length does an incoming req see
system.mem_ctrls1.wrQLenPdf::3                      0                       # What write queue length does an incoming req see
system.mem_ctrls1.wrQLenPdf::4                      0                       # What write queue length does an incoming req see
system.mem_ctrls1.wrQLenPdf::5                      0                       # What write queue length does an incoming req see
system.mem_ctrls1.wrQLenPdf::6                      0                       # What write queue length does an incoming req see
system.mem_ctrls1.wrQLenPdf::7                      0                       # What write queue length does an incoming req see
system.mem_ctrls1.wrQLenPdf::8                      0                       # What write queue length does an incoming req see
system.mem_ctrls1.wrQLenPdf::9                      0                       # What write queue length does an incoming req see
system.mem_ctrls1.wrQLenPdf::10                     0                       # What write queue length does an incoming req see
system.mem_ctrls1.wrQLenPdf::11                     0                       # What write queue length does an incoming req see
system.mem_ctrls1.wrQLenPdf::12                     0                       # What write queue length does an incoming req see
system.mem_ctrls1.wrQLenPdf::13                     0                       # What write queue length does an incoming req see
system.mem_ctrls1.wrQLenPdf::14                     0                       # What write queue length does an incoming req see
system.mem_ctrls1.wrQLenPdf::15                     0                       # What write queue length does an incoming req see
system.mem_ctrls1.wrQLenPdf::16                     0                       # What write queue length does an incoming req see
system.mem_ctrls1.wrQLenPdf::17                     0                       # What write queue length does an incoming req see
system.mem_ctrls1.wrQLenPdf::18                     0                       # What write queue length does an incoming req see
system.mem_ctrls1.wrQLenPdf::19                     0                       # What write queue length does an incoming req see
system.mem_ctrls1.wrQLenPdf::20                     0                       # What write queue length does an incoming req see
system.mem_ctrls1.wrQLenPdf::21                     0                       # What write queue length does an incoming req see
system.mem_ctrls1.wrQLenPdf::22                     0                       # What write queue length does an incoming req see
system.mem_ctrls1.wrQLenPdf::23                     0                       # What write queue length does an incoming req see
system.mem_ctrls1.wrQLenPdf::24                     0                       # What write queue length does an incoming req see
system.mem_ctrls1.wrQLenPdf::25                     0                       # What write queue length does an incoming req see
system.mem_ctrls1.wrQLenPdf::26                     0                       # What write queue length does an incoming req see
system.mem_ctrls1.wrQLenPdf::27                     0                       # What write queue length does an incoming req see
system.mem_ctrls1.wrQLenPdf::28                     0                       # What write queue length does an incoming req see
system.mem_ctrls1.wrQLenPdf::29                     0                       # What write queue length does an incoming req see
system.mem_ctrls1.wrQLenPdf::30                     0                       # What write queue length does an incoming req see
system.mem_ctrls1.wrQLenPdf::31                     0                       # What write queue length does an incoming req see
system.mem_ctrls1.wrQLenPdf::32                     0                       # What write queue length does an incoming req see
system.mem_ctrls1.wrQLenPdf::33                     0                       # What write queue length does an incoming req see
system.mem_ctrls1.wrQLenPdf::34                     0                       # What write queue length does an incoming req see
system.mem_ctrls1.wrQLenPdf::35                     0                       # What write queue length does an incoming req see
system.mem_ctrls1.wrQLenPdf::36                     0                       # What write queue length does an incoming req see
system.mem_ctrls1.wrQLenPdf::37                     0                       # What write queue length does an incoming req see
system.mem_ctrls1.wrQLenPdf::38                     0                       # What write queue length does an incoming req see
system.mem_ctrls1.wrQLenPdf::39                     0                       # What write queue length does an incoming req see
system.mem_ctrls1.wrQLenPdf::40                     0                       # What write queue length does an incoming req see
system.mem_ctrls1.wrQLenPdf::41                     0                       # What write queue length does an incoming req see
system.mem_ctrls1.wrQLenPdf::42                     0                       # What write queue length does an incoming req see
system.mem_ctrls1.wrQLenPdf::43                     0                       # What write queue length does an incoming req see
system.mem_ctrls1.wrQLenPdf::44                     0                       # What write queue length does an incoming req see
system.mem_ctrls1.wrQLenPdf::45                     0                       # What write queue length does an incoming req see
system.mem_ctrls1.wrQLenPdf::46                     0                       # What write queue length does an incoming req see
system.mem_ctrls1.wrQLenPdf::47                     0                       # What write queue length does an incoming req see
system.mem_ctrls1.wrQLenPdf::48                     0                       # What write queue length does an incoming req see
system.mem_ctrls1.wrQLenPdf::49                     0                       # What write queue length does an incoming req see
system.mem_ctrls1.wrQLenPdf::50                     0                       # What write queue length does an incoming req see
system.mem_ctrls1.wrQLenPdf::51                     0                       # What write queue length does an incoming req see
system.mem_ctrls1.wrQLenPdf::52                     0                       # What write queue length does an incoming req see
system.mem_ctrls1.wrQLenPdf::53                     0                       # What write queue length does an incoming req see
system.mem_ctrls1.wrQLenPdf::54                     0                       # What write queue length does an incoming req see
system.mem_ctrls1.wrQLenPdf::55                     0                       # What write queue length does an incoming req see
system.mem_ctrls1.wrQLenPdf::56                     0                       # What write queue length does an incoming req see
system.mem_ctrls1.wrQLenPdf::57                     0                       # What write queue length does an incoming req see
system.mem_ctrls1.wrQLenPdf::58                     0                       # What write queue length does an incoming req see
system.mem_ctrls1.wrQLenPdf::59                     0                       # What write queue length does an incoming req see
system.mem_ctrls1.wrQLenPdf::60                     0                       # What write queue length does an incoming req see
system.mem_ctrls1.wrQLenPdf::61                     0                       # What write queue length does an incoming req see
system.mem_ctrls1.wrQLenPdf::62                     0                       # What write queue length does an incoming req see
system.mem_ctrls1.wrQLenPdf::63                     0                       # What write queue length does an incoming req see
system.mem_ctrls1.bytesPerActivate::samples        32449                       # Bytes accessed per row activation
system.mem_ctrls1.bytesPerActivate::mean   106.736356                       # Bytes accessed per row activation
system.mem_ctrls1.bytesPerActivate::gmean    81.032178                       # Bytes accessed per row activation
system.mem_ctrls1.bytesPerActivate::stdev   122.074416                       # Bytes accessed per row activation
system.mem_ctrls1.bytesPerActivate::0-127        27058     83.39%     83.39% # Bytes accessed per row activation
system.mem_ctrls1.bytesPerActivate::128-255         2515      7.75%     91.14% # Bytes accessed per row activation
system.mem_ctrls1.bytesPerActivate::256-383          450      1.39%     92.52% # Bytes accessed per row activation
system.mem_ctrls1.bytesPerActivate::384-511          195      0.60%     93.12% # Bytes accessed per row activation
system.mem_ctrls1.bytesPerActivate::512-639         2126      6.55%     99.68% # Bytes accessed per row activation
system.mem_ctrls1.bytesPerActivate::640-767           76      0.23%     99.91% # Bytes accessed per row activation
system.mem_ctrls1.bytesPerActivate::768-895           12      0.04%     99.95% # Bytes accessed per row activation
system.mem_ctrls1.bytesPerActivate::896-1023            3      0.01%     99.96% # Bytes accessed per row activation
system.mem_ctrls1.bytesPerActivate::1024-1151           14      0.04%    100.00% # Bytes accessed per row activation
system.mem_ctrls1.bytesPerActivate::total        32449                       # Bytes accessed per row activation
system.mem_ctrls1.totQLat                  1365068000                       # Total ticks spent queuing
system.mem_ctrls1.totMemAccLat             2379893000                       # Total ticks spent from burst creation until serviced by the DRAM
system.mem_ctrls1.totBusLat                 270620000                       # Total ticks spent in databus transfers
system.mem_ctrls1.avgQLat                    25221.12                       # Average queueing delay per DRAM burst
system.mem_ctrls1.avgBusLat                   5000.00                       # Average bus latency per DRAM burst
system.mem_ctrls1.avgMemAccLat               43971.12                       # Average memory access latency per DRAM burst
system.mem_ctrls1.avgRdBW                       87.72                       # Average DRAM read bandwidth in MiByte/s
system.mem_ctrls1.avgWrBW                        0.00                       # Average achieved write bandwidth in MiByte/s
system.mem_ctrls1.avgRdBWSys                    87.72                       # Average system read bandwidth in MiByte/s
system.mem_ctrls1.avgWrBWSys                     0.00                       # Average system write bandwidth in MiByte/s
system.mem_ctrls1.peakBW                     12800.00                       # Theoretical peak bandwidth in MiByte/s
system.mem_ctrls1.busUtil                        0.69                       # Data bus utilization in percentage
system.mem_ctrls1.busUtilRead                    0.69                       # Data bus utilization in percentage for reads
system.mem_ctrls1.busUtilWrite                   0.00                       # Data bus utilization in percentage for writes
system.mem_ctrls1.avgRdQLen                      1.06                       # Average read queue length when enqueuing
system.mem_ctrls1.avgWrQLen                      0.00                       # Average write queue length when enqueuing
system.mem_ctrls1.readRowHits                   21672                       # Number of row buffer hits during reads
system.mem_ctrls1.writeRowHits                      0                       # Number of row buffer hits during writes
system.mem_ctrls1.readRowHitRate                40.04                       # Row buffer hit rate for reads
system.mem_ctrls1.writeRowHitRate                 nan                       # Row buffer hit rate for writes
system.mem_ctrls1.avgGap                    729616.04                       # Average gap between requests
system.mem_ctrls1.pageHitRate                   40.04                       # Row buffer hit rate, read and write combined
system.mem_ctrls1_0.actEnergy               103986960                       # Energy for activate commands per rank (pJ)
system.mem_ctrls1_0.preEnergy                55266585                       # Energy for precharge commands per rank (pJ)
system.mem_ctrls1_0.readEnergy              198342060                       # Energy for read commands per rank (pJ)
system.mem_ctrls1_0.writeEnergy                     0                       # Energy for write commands per rank (pJ)
system.mem_ctrls1_0.refreshEnergy        1381710720.000000                       # Energy for refresh commands per rank (pJ)
system.mem_ctrls1_0.actBackEnergy           670479030                       # Energy for active background per rank (pJ)
system.mem_ctrls1_0.preBackEnergy            32224320                       # Energy for precharge background per rank (pJ)
system.mem_ctrls1_0.actPowerDownEnergy     6684254910                       # Energy for active power-down per rank (pJ)
system.mem_ctrls1_0.prePowerDownEnergy      420528480                       # Energy for precharge power-down per rank (pJ)
system.mem_ctrls1_0.selfRefreshEnergy      5339254620                       # Energy for self refresh per rank (pJ)
system.mem_ctrls1_0.totalEnergy           14886047685                       # Total energy per rank (pJ)
system.mem_ctrls1_0.averagePower           376.954416                       # Core power per rank (mW)
system.mem_ctrls1_0.totalIdleTime         37935985750                       # Total Idle time Per DRAM Rank
system.mem_ctrls1_0.memoryStateTime::IDLE     20962250                       # Time in different power states
system.mem_ctrls1_0.memoryStateTime::REF    584648000                       # Time in different power states
system.mem_ctrls1_0.memoryStateTime::SREF  22182465250                       # Time in different power states
system.mem_ctrls1_0.memoryStateTime::PRE_PDN   1095243000                       # Time in different power states
system.mem_ctrls1_0.memoryStateTime::ACT    948581000                       # Time in different power states
system.mem_ctrls1_0.memoryStateTime::ACT_PDN  14658413000                       # Time in different power states
system.mem_ctrls1_1.actEnergy               127720320                       # Energy for activate commands per rank (pJ)
system.mem_ctrls1_1.preEnergy                67877370                       # Energy for precharge commands per rank (pJ)
system.mem_ctrls1_1.readEnergy              188103300                       # Energy for read commands per rank (pJ)
system.mem_ctrls1_1.writeEnergy                     0                       # Energy for write commands per rank (pJ)
system.mem_ctrls1_1.refreshEnergy        997560720.000000                       # Energy for refresh commands per rank (pJ)
system.mem_ctrls1_1.actBackEnergy           599567040                       # Energy for active background per rank (pJ)
system.mem_ctrls1_1.preBackEnergy            24243360                       # Energy for precharge background per rank (pJ)
system.mem_ctrls1_1.actPowerDownEnergy     4671081030                       # Energy for active power-down per rank (pJ)
system.mem_ctrls1_1.prePowerDownEnergy      301846080                       # Energy for precharge power-down per rank (pJ)
system.mem_ctrls1_1.selfRefreshEnergy      6517515480                       # Energy for self refresh per rank (pJ)
system.mem_ctrls1_1.totalEnergy           13495514700                       # Total energy per rank (pJ)
system.mem_ctrls1_1.averagePower           341.742413                       # Core power per rank (mW)
system.mem_ctrls1_1.totalIdleTime         38112235750                       # Total Idle time Per DRAM Rank
system.mem_ctrls1_1.memoryStateTime::IDLE     17858000                       # Time in different power states
system.mem_ctrls1_1.memoryStateTime::REF    422172000                       # Time in different power states
system.mem_ctrls1_1.memoryStateTime::SREF  27082679250                       # Time in different power states
system.mem_ctrls1_1.memoryStateTime::PRE_PDN    785942250                       # Time in different power states
system.mem_ctrls1_1.memoryStateTime::ACT    937669500                       # Time in different power states
system.mem_ctrls1_1.memoryStateTime::ACT_PDN  10243991500                       # Time in different power states
system.mem_ctrls2.pwrStateResidencyTicks::UNDEFINED  39490312500                       # Cumulative time (in ticks) in various power states
system.mem_ctrls2.bytes_read::ruby.dir_cntrl2      3479168                       # Number of bytes read from this memory
system.mem_ctrls2.bytes_read::total           3479168                       # Number of bytes read from this memory
system.mem_ctrls2.num_reads::ruby.dir_cntrl2        54362                       # Number of read requests responded to by this memory
system.mem_ctrls2.num_reads::total              54362                       # Number of read requests responded to by this memory
system.mem_ctrls2.bw_read::ruby.dir_cntrl2     88101810                       # Total read bandwidth from this memory (bytes/s)
system.mem_ctrls2.bw_read::total             88101810                       # Total read bandwidth from this memory (bytes/s)
system.mem_ctrls2.bw_total::ruby.dir_cntrl2     88101810                       # Total bandwidth to/from this memory (bytes/s)
system.mem_ctrls2.bw_total::total            88101810                       # Total bandwidth to/from this memory (bytes/s)
system.mem_ctrls2.readReqs                      54362                       # Number of read requests accepted
system.mem_ctrls2.avgNetLat                      0.00                       # Average network latency to DRAM controller
system.mem_ctrls2.writeReqs                         0                       # Number of write requests accepted
system.mem_ctrls2.readBursts                    54362                       # Number of DRAM read bursts, including those serviced by the write queue
system.mem_ctrls2.writeBursts                       0                       # Number of DRAM write bursts, including those merged in the write queue
system.mem_ctrls2.bytesReadDRAM               3479168                       # Total number of bytes read from DRAM
system.mem_ctrls2.bytesReadWrQ                      0                       # Total number of bytes read from write queue
system.mem_ctrls2.bytesWritten                      0                       # Total number of bytes written to DRAM
system.mem_ctrls2.bytesReadSys                3479168                       # Total read bytes from the system interface side
system.mem_ctrls2.bytesWrittenSys                   0                       # Total written bytes from the system interface side
system.mem_ctrls2.servicedByWrQ                     0                       # Number of DRAM read bursts serviced by the write queue
system.mem_ctrls2.mergedWrBursts                    0                       # Number of DRAM write bursts merged with an existing one
system.mem_ctrls2.neitherReadNorWriteReqs            0                       # Number of requests that are neither read nor write
system.mem_ctrls2.perBankRdBursts::0             4052                       # Per bank write bursts
system.mem_ctrls2.perBankRdBursts::1             3796                       # Per bank write bursts
system.mem_ctrls2.perBankRdBursts::2             3576                       # Per bank write bursts
system.mem_ctrls2.perBankRdBursts::3             3479                       # Per bank write bursts
system.mem_ctrls2.perBankRdBursts::4             3435                       # Per bank write bursts
system.mem_ctrls2.perBankRdBursts::5             3090                       # Per bank write bursts
system.mem_ctrls2.perBankRdBursts::6             3111                       # Per bank write bursts
system.mem_ctrls2.perBankRdBursts::7             3270                       # Per bank write bursts
system.mem_ctrls2.perBankRdBursts::8             2643                       # Per bank write bursts
system.mem_ctrls2.perBankRdBursts::9             2921                       # Per bank write bursts
system.mem_ctrls2.perBankRdBursts::10            3203                       # Per bank write bursts
system.mem_ctrls2.perBankRdBursts::11            3082                       # Per bank write bursts
system.mem_ctrls2.perBankRdBursts::12            3472                       # Per bank write bursts
system.mem_ctrls2.perBankRdBursts::13            3825                       # Per bank write bursts
system.mem_ctrls2.perBankRdBursts::14            3448                       # Per bank write bursts
system.mem_ctrls2.perBankRdBursts::15            3959                       # Per bank write bursts
system.mem_ctrls2.perBankWrBursts::0                0                       # Per bank write bursts
system.mem_ctrls2.perBankWrBursts::1                0                       # Per bank write bursts
system.mem_ctrls2.perBankWrBursts::2                0                       # Per bank write bursts
system.mem_ctrls2.perBankWrBursts::3                0                       # Per bank write bursts
system.mem_ctrls2.perBankWrBursts::4                0                       # Per bank write bursts
system.mem_ctrls2.perBankWrBursts::5                0                       # Per bank write bursts
system.mem_ctrls2.perBankWrBursts::6                0                       # Per bank write bursts
system.mem_ctrls2.perBankWrBursts::7                0                       # Per bank write bursts
system.mem_ctrls2.perBankWrBursts::8                0                       # Per bank write bursts
system.mem_ctrls2.perBankWrBursts::9                0                       # Per bank write bursts
system.mem_ctrls2.perBankWrBursts::10               0                       # Per bank write bursts
system.mem_ctrls2.perBankWrBursts::11               0                       # Per bank write bursts
system.mem_ctrls2.perBankWrBursts::12               0                       # Per bank write bursts
system.mem_ctrls2.perBankWrBursts::13               0                       # Per bank write bursts
system.mem_ctrls2.perBankWrBursts::14               0                       # Per bank write bursts
system.mem_ctrls2.perBankWrBursts::15               0                       # Per bank write bursts
system.mem_ctrls2.numRdRetry                        0                       # Number of times read queue was full causing retry
system.mem_ctrls2.numWrRetry                        0                       # Number of times write queue was full causing retry
system.mem_ctrls2.totGap                  39489302000                       # Total gap between requests
system.mem_ctrls2.readPktSize::0                    0                       # Read request sizes (log2)
system.mem_ctrls2.readPktSize::1                    0                       # Read request sizes (log2)
system.mem_ctrls2.readPktSize::2                    0                       # Read request sizes (log2)
system.mem_ctrls2.readPktSize::3                    0                       # Read request sizes (log2)
system.mem_ctrls2.readPktSize::4                    0                       # Read request sizes (log2)
system.mem_ctrls2.readPktSize::5                    0                       # Read request sizes (log2)
system.mem_ctrls2.readPktSize::6                54362                       # Read request sizes (log2)
system.mem_ctrls2.writePktSize::0                   0                       # Write request sizes (log2)
system.mem_ctrls2.writePktSize::1                   0                       # Write request sizes (log2)
system.mem_ctrls2.writePktSize::2                   0                       # Write request sizes (log2)
system.mem_ctrls2.writePktSize::3                   0                       # Write request sizes (log2)
system.mem_ctrls2.writePktSize::4                   0                       # Write request sizes (log2)
system.mem_ctrls2.writePktSize::5                   0                       # Write request sizes (log2)
system.mem_ctrls2.writePktSize::6                   0                       # Write request sizes (log2)
system.mem_ctrls2.rdQLenPdf::0                  39519                       # What read queue length does an incoming req see
system.mem_ctrls2.rdQLenPdf::1                   9146                       # What read queue length does an incoming req see
system.mem_ctrls2.rdQLenPdf::2                   3428                       # What read queue length does an incoming req see
system.mem_ctrls2.rdQLenPdf::3                   1379                       # What read queue length does an incoming req see
system.mem_ctrls2.rdQLenPdf::4                    564                       # What read queue length does an incoming req see
system.mem_ctrls2.rdQLenPdf::5                    197                       # What read queue length does an incoming req see
system.mem_ctrls2.rdQLenPdf::6                     84                       # What read queue length does an incoming req see
system.mem_ctrls2.rdQLenPdf::7                     26                       # What read queue length does an incoming req see
system.mem_ctrls2.rdQLenPdf::8                      9                       # What read queue length does an incoming req see
system.mem_ctrls2.rdQLenPdf::9                      3                       # What read queue length does an incoming req see
system.mem_ctrls2.rdQLenPdf::10                     3                       # What read queue length does an incoming req see
system.mem_ctrls2.rdQLenPdf::11                     3                       # What read queue length does an incoming req see
system.mem_ctrls2.rdQLenPdf::12                     1                       # What read queue length does an incoming req see
system.mem_ctrls2.rdQLenPdf::13                     0                       # What read queue length does an incoming req see
system.mem_ctrls2.rdQLenPdf::14                     0                       # What read queue length does an incoming req see
system.mem_ctrls2.rdQLenPdf::15                     0                       # What read queue length does an incoming req see
system.mem_ctrls2.rdQLenPdf::16                     0                       # What read queue length does an incoming req see
system.mem_ctrls2.rdQLenPdf::17                     0                       # What read queue length does an incoming req see
system.mem_ctrls2.rdQLenPdf::18                     0                       # What read queue length does an incoming req see
system.mem_ctrls2.rdQLenPdf::19                     0                       # What read queue length does an incoming req see
system.mem_ctrls2.rdQLenPdf::20                     0                       # What read queue length does an incoming req see
system.mem_ctrls2.rdQLenPdf::21                     0                       # What read queue length does an incoming req see
system.mem_ctrls2.rdQLenPdf::22                     0                       # What read queue length does an incoming req see
system.mem_ctrls2.rdQLenPdf::23                     0                       # What read queue length does an incoming req see
system.mem_ctrls2.rdQLenPdf::24                     0                       # What read queue length does an incoming req see
system.mem_ctrls2.rdQLenPdf::25                     0                       # What read queue length does an incoming req see
system.mem_ctrls2.rdQLenPdf::26                     0                       # What read queue length does an incoming req see
system.mem_ctrls2.rdQLenPdf::27                     0                       # What read queue length does an incoming req see
system.mem_ctrls2.rdQLenPdf::28                     0                       # What read queue length does an incoming req see
system.mem_ctrls2.rdQLenPdf::29                     0                       # What read queue length does an incoming req see
system.mem_ctrls2.rdQLenPdf::30                     0                       # What read queue length does an incoming req see
system.mem_ctrls2.rdQLenPdf::31                     0                       # What read queue length does an incoming req see
system.mem_ctrls2.wrQLenPdf::0                      0                       # What write queue length does an incoming req see
system.mem_ctrls2.wrQLenPdf::1                      0                       # What write queue length does an incoming req see
system.mem_ctrls2.wrQLenPdf::2                      0                       # What write queue length does an incoming req see
system.mem_ctrls2.wrQLenPdf::3                      0                       # What write queue length does an incoming req see
system.mem_ctrls2.wrQLenPdf::4                      0                       # What write queue length does an incoming req see
system.mem_ctrls2.wrQLenPdf::5                      0                       # What write queue length does an incoming req see
system.mem_ctrls2.wrQLenPdf::6                      0                       # What write queue length does an incoming req see
system.mem_ctrls2.wrQLenPdf::7                      0                       # What write queue length does an incoming req see
system.mem_ctrls2.wrQLenPdf::8                      0                       # What write queue length does an incoming req see
system.mem_ctrls2.wrQLenPdf::9                      0                       # What write queue length does an incoming req see
system.mem_ctrls2.wrQLenPdf::10                     0                       # What write queue length does an incoming req see
system.mem_ctrls2.wrQLenPdf::11                     0                       # What write queue length does an incoming req see
system.mem_ctrls2.wrQLenPdf::12                     0                       # What write queue length does an incoming req see
system.mem_ctrls2.wrQLenPdf::13                     0                       # What write queue length does an incoming req see
system.mem_ctrls2.wrQLenPdf::14                     0                       # What write queue length does an incoming req see
system.mem_ctrls2.wrQLenPdf::15                     0                       # What write queue length does an incoming req see
system.mem_ctrls2.wrQLenPdf::16                     0                       # What write queue length does an incoming req see
system.mem_ctrls2.wrQLenPdf::17                     0                       # What write queue length does an incoming req see
system.mem_ctrls2.wrQLenPdf::18                     0                       # What write queue length does an incoming req see
system.mem_ctrls2.wrQLenPdf::19                     0                       # What write queue length does an incoming req see
system.mem_ctrls2.wrQLenPdf::20                     0                       # What write queue length does an incoming req see
system.mem_ctrls2.wrQLenPdf::21                     0                       # What write queue length does an incoming req see
system.mem_ctrls2.wrQLenPdf::22                     0                       # What write queue length does an incoming req see
system.mem_ctrls2.wrQLenPdf::23                     0                       # What write queue length does an incoming req see
system.mem_ctrls2.wrQLenPdf::24                     0                       # What write queue length does an incoming req see
system.mem_ctrls2.wrQLenPdf::25                     0                       # What write queue length does an incoming req see
system.mem_ctrls2.wrQLenPdf::26                     0                       # What write queue length does an incoming req see
system.mem_ctrls2.wrQLenPdf::27                     0                       # What write queue length does an incoming req see
system.mem_ctrls2.wrQLenPdf::28                     0                       # What write queue length does an incoming req see
system.mem_ctrls2.wrQLenPdf::29                     0                       # What write queue length does an incoming req see
system.mem_ctrls2.wrQLenPdf::30                     0                       # What write queue length does an incoming req see
system.mem_ctrls2.wrQLenPdf::31                     0                       # What write queue length does an incoming req see
system.mem_ctrls2.wrQLenPdf::32                     0                       # What write queue length does an incoming req see
system.mem_ctrls2.wrQLenPdf::33                     0                       # What write queue length does an incoming req see
system.mem_ctrls2.wrQLenPdf::34                     0                       # What write queue length does an incoming req see
system.mem_ctrls2.wrQLenPdf::35                     0                       # What write queue length does an incoming req see
system.mem_ctrls2.wrQLenPdf::36                     0                       # What write queue length does an incoming req see
system.mem_ctrls2.wrQLenPdf::37                     0                       # What write queue length does an incoming req see
system.mem_ctrls2.wrQLenPdf::38                     0                       # What write queue length does an incoming req see
system.mem_ctrls2.wrQLenPdf::39                     0                       # What write queue length does an incoming req see
system.mem_ctrls2.wrQLenPdf::40                     0                       # What write queue length does an incoming req see
system.mem_ctrls2.wrQLenPdf::41                     0                       # What write queue length does an incoming req see
system.mem_ctrls2.wrQLenPdf::42                     0                       # What write queue length does an incoming req see
system.mem_ctrls2.wrQLenPdf::43                     0                       # What write queue length does an incoming req see
system.mem_ctrls2.wrQLenPdf::44                     0                       # What write queue length does an incoming req see
system.mem_ctrls2.wrQLenPdf::45                     0                       # What write queue length does an incoming req see
system.mem_ctrls2.wrQLenPdf::46                     0                       # What write queue length does an incoming req see
system.mem_ctrls2.wrQLenPdf::47                     0                       # What write queue length does an incoming req see
system.mem_ctrls2.wrQLenPdf::48                     0                       # What write queue length does an incoming req see
system.mem_ctrls2.wrQLenPdf::49                     0                       # What write queue length does an incoming req see
system.mem_ctrls2.wrQLenPdf::50                     0                       # What write queue length does an incoming req see
system.mem_ctrls2.wrQLenPdf::51                     0                       # What write queue length does an incoming req see
system.mem_ctrls2.wrQLenPdf::52                     0                       # What write queue length does an incoming req see
system.mem_ctrls2.wrQLenPdf::53                     0                       # What write queue length does an incoming req see
system.mem_ctrls2.wrQLenPdf::54                     0                       # What write queue length does an incoming req see
system.mem_ctrls2.wrQLenPdf::55                     0                       # What write queue length does an incoming req see
system.mem_ctrls2.wrQLenPdf::56                     0                       # What write queue length does an incoming req see
system.mem_ctrls2.wrQLenPdf::57                     0                       # What write queue length does an incoming req see
system.mem_ctrls2.wrQLenPdf::58                     0                       # What write queue length does an incoming req see
system.mem_ctrls2.wrQLenPdf::59                     0                       # What write queue length does an incoming req see
system.mem_ctrls2.wrQLenPdf::60                     0                       # What write queue length does an incoming req see
system.mem_ctrls2.wrQLenPdf::61                     0                       # What write queue length does an incoming req see
system.mem_ctrls2.wrQLenPdf::62                     0                       # What write queue length does an incoming req see
system.mem_ctrls2.wrQLenPdf::63                     0                       # What write queue length does an incoming req see
system.mem_ctrls2.bytesPerActivate::samples        32630                       # Bytes accessed per row activation
system.mem_ctrls2.bytesPerActivate::mean   106.609133                       # Bytes accessed per row activation
system.mem_ctrls2.bytesPerActivate::gmean    81.092167                       # Bytes accessed per row activation
system.mem_ctrls2.bytesPerActivate::stdev   121.450308                       # Bytes accessed per row activation
system.mem_ctrls2.bytesPerActivate::0-127        27136     83.16%     83.16% # Bytes accessed per row activation
system.mem_ctrls2.bytesPerActivate::128-255         2668      8.18%     91.34% # Bytes accessed per row activation
system.mem_ctrls2.bytesPerActivate::256-383          391      1.20%     92.54% # Bytes accessed per row activation
system.mem_ctrls2.bytesPerActivate::384-511          211      0.65%     93.18% # Bytes accessed per row activation
system.mem_ctrls2.bytesPerActivate::512-639         2126      6.52%     99.70% # Bytes accessed per row activation
system.mem_ctrls2.bytesPerActivate::640-767           73      0.22%     99.92% # Bytes accessed per row activation
system.mem_ctrls2.bytesPerActivate::768-895            9      0.03%     99.95% # Bytes accessed per row activation
system.mem_ctrls2.bytesPerActivate::896-1023            2      0.01%     99.96% # Bytes accessed per row activation
[...]
system.ruby.L2Cache_Controller.L2_Replacement_clean::total            3                      
system.ruby.L2Cache_Controller.Mem_Data  |       13622      6.27%      6.27% |       13496      6.21%     12.48% |       13412      6.17%     18.65% |       13552      6.24%     24.89% |       13384      6.16%     31.05% |       13538      6.23%     37.28% |       13594      6.26%     43.53% |       13608      6.26%     49.79% |       13734      6.32%     56.11% |       13328      6.13%     62.25% |       13538      6.23%     68.48% |       13538      6.23%     74.71% |       13706      6.31%     81.01% |       13762      6.33%     87.35% |       13818      6.36%     93.71% |       13678      6.29%    100.00%
system.ruby.L2Cache_Controller.Mem_Data::total       217308                      
system.ruby.L2Cache_Controller.Mem_Ack   |           0      0.00%      0.00% |           0      0.00%      0.00% |           0      0.00%      0.00% |           0      0.00%      0.00% |           1     33.33%     33.33% |           0      0.00%     33.33% |           0      0.00%     33.33% |           0      0.00%     33.33% |           1     33.33%     66.67% |           0      0.00%     66.67% |           0      0.00%     66.67% |           1     33.33%    100.00% |           0      0.00%    100.00% |           0      0.00%    100.00% |           0      0.00%    100.00% |           0      0.00%    100.00%
system.ruby.L2Cache_Controller.Mem_Ack::total            3                      
system.ruby.L2Cache_Controller.WB_Data   |          14      4.15%      4.15% |          14      4.15%      8.31% |          28      8.31%     16.62% |          28      8.31%     24.93% |          28      8.31%     33.23% |          28      8.31%     41.54% |          28      8.31%     49.85% |          28      8.31%     58.16% |          25      7.42%     65.58% |          25      7.42%     73.00% |          21      6.23%     79.23% |          14      4.15%     83.38% |          14      4.15%     87.54% |          14      4.15%     91.69% |          14      4.15%     95.85% |          14      4.15%    100.00%
system.ruby.L2Cache_Controller.WB_Data::total          337                      
system.ruby.L2Cache_Controller.Ack_all   |           0      0.00%      0.00% |           0      0.00%      0.00% |           0      0.00%      0.00% |           0      0.00%      0.00% |           0      0.00%      0.00% |           0      0.00%      0.00% |           0      0.00%      0.00% |           0      0.00%      0.00% |           0      0.00%      0.00% |           0      0.00%      0.00% |           0      0.00%      0.00% |           1    100.00%    100.00% |           0      0.00%    100.00% |           0      0.00%    100.00% |           0      0.00%    100.00% |           0      0.00%    100.00%
system.ruby.L2Cache_Controller.Ack_all::total            1                      
system.ruby.L2Cache_Controller.Unblock   |          14      4.15%      4.15% |          14      4.15%      8.31% |          28      8.31%     16.62% |          28      8.31%     24.93% |          28      8.31%     33.23% |          28      8.31%     41.54% |          28      8.31%     49.85% |          28      8.31%     58.16% |          25      7.42%     65.58% |          25      7.42%     73.00% |          21      6.23%     79.23% |          14      4.15%     83.38% |          14      4.15%     87.54% |          14      4.15%     91.69% |          14      4.15%     95.85% |          14      4.15%    100.00%
system.ruby.L2Cache_Controller.Unblock::total          337                      
system.ruby.L2Cache_Controller.Exclusive_Unblock |       33792      6.20%      6.20% |       33792      6.20%     12.40% |       33619      6.17%     18.57% |       34312      6.30%     24.87% |       33813      6.20%     31.07% |       33734      6.19%     37.26% |       33862      6.21%     43.47% |       34261      6.29%     49.76% |       34157      6.27%     56.03% |       33797      6.20%     62.23% |       34027      6.24%     68.47% |       34732      6.37%     74.85% |       34443      6.32%     81.17% |       34455      6.32%     87.49% |       34446      6.32%     93.81% |       33746      6.19%    100.00%
system.ruby.L2Cache_Controller.Exclusive_Unblock::total       544988                      
system.ruby.L2Cache_Controller.NP.L1_GET_INSTR |        1274      6.27%      6.27% |        1302      6.41%     12.68% |        1442      7.10%     19.78% |        1232      6.06%     25.84% |        1274      6.27%     32.12% |        1274      6.27%     38.39% |        1246      6.13%     44.52% |        1246      6.13%     50.65% |        1316      6.48%     57.13% |        1106      5.44%     62.58% |        1190      5.86%     68.44% |        1218      6.00%     74.43% |        1190      5.86%     80.29% |        1260      6.20%     86.49% |        1442      7.10%     93.59% |        1302      6.41%    100.00%
system.ruby.L2Cache_Controller.NP.L1_GET_INSTR::total        20314                      
system.ruby.L2Cache_Controller.NP.L1_GETS |        6692      6.31%      6.31% |        6468      6.10%     12.42% |        6216      5.86%     18.28% |        6608      6.23%     24.51% |        6370      6.01%     30.52% |        6566      6.19%     36.72% |        6636      6.26%     42.98% |        6664      6.29%     49.27% |        6748      6.37%     55.63% |        6566      6.19%     61.83% |        6678      6.30%     68.13% |        6692      6.31%     74.44% |        6874      6.49%     80.93% |        6818      6.43%     87.36% |        6692      6.31%     93.67% |        6706      6.33%    100.00%
system.ruby.L2Cache_Controller.NP.L1_GETS::total       105994                      
system.ruby.L2Cache_Controller.NP.L1_GETX |        5656      6.22%      6.22% |        5726      6.29%     12.51% |        5754      6.32%     18.83% |        5712      6.28%     25.11% |        5740      6.31%     31.42% |        5698      6.26%     37.68% |        5712      6.28%     43.95% |        5698      6.26%     50.22% |        5670      6.23%     56.45% |        5656      6.22%     62.66% |        5670      6.23%     68.89% |        5628      6.18%     75.08% |        5642      6.20%     81.28% |        5684      6.25%     87.52% |        5684      6.25%     93.77% |        5670      6.23%    100.00%
system.ruby.L2Cache_Controller.NP.L1_GETX::total        91000                      
system.ruby.L2Cache_Controller.SS.L1_GET_INSTR |         119      5.30%      5.30% |         136      6.06%     11.36% |         276     12.29%     23.65% |          68      3.03%     26.68% |         385     17.15%     43.83% |         106      4.72%     48.55% |         222      9.89%     58.44% |         105      4.68%     63.12% |         167      7.44%     70.56% |          60      2.67%     73.23% |         120      5.35%     78.57% |         121      5.39%     83.96% |          69      3.07%     87.04% |          81      3.61%     90.65% |         136      6.06%     96.70% |          74      3.30%    100.00%
system.ruby.L2Cache_Controller.SS.L1_GET_INSTR::total         2245                      
system.ruby.L2Cache_Controller.SS.L1_GETS |          56      4.07%      4.07% |          56      4.07%      8.14% |         112      8.14%     16.28% |         112      8.14%     24.42% |         112      8.14%     32.56% |         112      8.14%     40.70% |         112      8.14%     48.84% |         126      9.16%     57.99% |         100      7.27%     65.26% |         114      8.28%     73.55% |          84      6.10%     79.65% |          56      4.07%     83.72% |          56      4.07%     87.79% |          56      4.07%     91.86% |          56      4.07%     95.93% |          56      4.07%    100.00%
system.ruby.L2Cache_Controller.SS.L1_GETS::total         1376                      
system.ruby.L2Cache_Controller.SS.L2_Replacement_clean |           0      0.00%      0.00% |           0      0.00%      0.00% |           0      0.00%      0.00% |           0      0.00%      0.00% |           0      0.00%      0.00% |           0      0.00%      0.00% |           0      0.00%      0.00% |           0      0.00%      0.00% |           0      0.00%      0.00% |           0      0.00%      0.00% |           0      0.00%      0.00% |           1    100.00%    100.00% |           0      0.00%    100.00% |           0      0.00%    100.00% |           0      0.00%    100.00% |           0      0.00%    100.00%
system.ruby.L2Cache_Controller.SS.L2_Replacement_clean::total            1                      
system.ruby.L2Cache_Controller.M.L1_GET_INSTR |          14     25.00%     25.00% |           0      0.00%     25.00% |           0      0.00%     25.00% |           0      0.00%     25.00% |           0      0.00%     25.00% |           0      0.00%     25.00% |           0      0.00%     25.00% |          14     25.00%     50.00% |           0      0.00%     50.00% |          14     25.00%     75.00% |           0      0.00%     75.00% |           0      0.00%     75.00% |           0      0.00%     75.00% |           0      0.00%     75.00% |          14     25.00%    100.00% |           0      0.00%    100.00%
system.ruby.L2Cache_Controller.M.L1_GET_INSTR::total           56                      
system.ruby.L2Cache_Controller.M.L1_GETS |        3412      5.84%      5.84% |        3484      5.96%     11.80% |        3553      6.08%     17.88% |        3949      6.76%     24.64% |        3567      6.10%     30.74% |        3370      5.77%     36.51% |        3474      5.95%     42.46% |        3672      6.28%     48.74% |        3625      6.20%     54.94% |        3439      5.89%     60.83% |        3540      6.06%     66.89% |        4326      7.40%     74.29% |        3812      6.52%     80.81% |        3983      6.82%     87.63% |        3970      6.79%     94.42% |        3258      5.58%    100.00%
system.ruby.L2Cache_Controller.M.L1_GETS::total        58434                      
system.ruby.L2Cache_Controller.M.L1_GETX |       18032      6.23%      6.23% |       18114      6.26%     12.48% |       18096      6.25%     18.73% |       18043      6.23%     24.96% |       18136      6.26%     31.23% |       18100      6.25%     37.48% |       18040      6.23%     43.71% |       18227      6.29%     50.00% |       18114      6.26%     56.26% |       18136      6.26%     62.52% |       18139      6.26%     68.79% |       18086      6.25%     75.03% |       18115      6.26%     81.29% |       17970      6.21%     87.49% |       18100      6.25%     93.74% |       18112      6.26%    100.00%
system.ruby.L2Cache_Controller.M.L1_GETX::total       289560                      
system.ruby.L2Cache_Controller.M.L2_Replacement_clean |           0      0.00%      0.00% |           0      0.00%      0.00% |           0      0.00%      0.00% |           0      0.00%      0.00% |           1     50.00%     50.00% |           0      0.00%     50.00% |           0      0.00%     50.00% |           0      0.00%     50.00% |           1     50.00%    100.00% |           0      0.00%    100.00% |           0      0.00%    100.00% |           0      0.00%    100.00% |           0      0.00%    100.00% |           0      0.00%    100.00% |           0      0.00%    100.00% |           0      0.00%    100.00%
system.ruby.L2Cache_Controller.M.L2_Replacement_clean::total            2                      
system.ruby.L2Cache_Controller.MT.L1_GETS |          14      4.15%      4.15% |          14      4.15%      8.31% |          28      8.31%     16.62% |          28      8.31%     24.93% |          28      8.31%     33.23% |          28      8.31%     41.54% |          28      8.31%     49.85% |          28      8.31%     58.16% |          25      7.42%     65.58% |          25      7.42%     73.00% |          21      6.23%     79.23% |          14      4.15%     83.38% |          14      4.15%     87.54% |          14      4.15%     91.69% |          14      4.15%     95.85% |          14      4.15%    100.00%
system.ruby.L2Cache_Controller.MT.L1_GETS::total          337                      
system.ruby.L2Cache_Controller.MT.L1_PUTX |       32765      6.20%      6.20% |       32765      6.20%     12.40% |       32594      6.17%     18.56% |       33287      6.30%     24.86% |       32785      6.20%     31.06% |       32710      6.19%     37.25% |       32837      6.21%     43.46% |       33250      6.29%     49.75% |       33125      6.27%     56.02% |       32770      6.20%     62.22% |       33003      6.24%     68.46% |       33707      6.38%     74.84% |       33413      6.32%     81.16% |       33430      6.32%     87.49% |       33417      6.32%     93.81% |       32721      6.19%    100.00%
system.ruby.L2Cache_Controller.MT.L1_PUTX::total       528579                      
system.ruby.L2Cache_Controller.M_I.Mem_Ack |           0      0.00%      0.00% |           0      0.00%      0.00% |           0      0.00%      0.00% |           0      0.00%      0.00% |           1     33.33%     33.33% |           0      0.00%     33.33% |           0      0.00%     33.33% |           0      0.00%     33.33% |           1     33.33%     66.67% |           0      0.00%     66.67% |           0      0.00%     66.67% |           1     33.33%    100.00% |           0      0.00%    100.00% |           0      0.00%    100.00% |           0      0.00%    100.00% |           0      0.00%    100.00%
system.ruby.L2Cache_Controller.M_I.Mem_Ack::total            3                      
system.ruby.L2Cache_Controller.I_I.Ack_all |           0      0.00%      0.00% |           0      0.00%      0.00% |           0      0.00%      0.00% |           0      0.00%      0.00% |           0      0.00%      0.00% |           0      0.00%      0.00% |           0      0.00%      0.00% |           0      0.00%      0.00% |           0      0.00%      0.00% |           0      0.00%      0.00% |           0      0.00%      0.00% |           1    100.00%    100.00% |           0      0.00%    100.00% |           0      0.00%    100.00% |           0      0.00%    100.00% |           0      0.00%    100.00%
system.ruby.L2Cache_Controller.I_I.Ack_all::total            1                      
system.ruby.L2Cache_Controller.ISS.Mem_Data |        6692      6.31%      6.31% |        6468      6.10%     12.42% |        6216      5.86%     18.28% |        6608      6.23%     24.51% |        6370      6.01%     30.52% |        6566      6.19%     36.72% |        6636      6.26%     42.98% |        6664      6.29%     49.27% |        6748      6.37%     55.63% |        6566      6.19%     61.83% |        6678      6.30%     68.13% |        6692      6.31%     74.44% |        6874      6.49%     80.93% |        6818      6.43%     87.36% |        6692      6.31%     93.67% |        6706      6.33%    100.00%
system.ruby.L2Cache_Controller.ISS.Mem_Data::total       105994                      
system.ruby.L2Cache_Controller.IS.Mem_Data |        1274      6.27%      6.27% |        1302      6.41%     12.68% |        1442      7.10%     19.78% |        1232      6.06%     25.84% |        1274      6.27%     32.12% |        1274      6.27%     38.39% |        1246      6.13%     44.52% |        1246      6.13%     50.65% |        1316      6.48%     57.13% |        1106      5.44%     62.58% |        1190      5.86%     68.44% |        1218      6.00%     74.43% |        1190      5.86%     80.29% |        1260      6.20%     86.49% |        1442      7.10%     93.59% |        1302      6.41%    100.00%
system.ruby.L2Cache_Controller.IS.Mem_Data::total        20314                      
system.ruby.L2Cache_Controller.IM.Mem_Data |        5656      6.22%      6.22% |        5726      6.29%     12.51% |        5754      6.32%     18.83% |        5712      6.28%     25.11% |        5740      6.31%     31.42% |        5698      6.26%     37.68% |        5712      6.28%     43.95% |        5698      6.26%     50.22% |        5670      6.23%     56.45% |        5656      6.22%     62.66% |        5670      6.23%     68.89% |        5628      6.18%     75.08% |        5642      6.20%     81.28% |        5684      6.25%     87.52% |        5684      6.25%     93.77% |        5670      6.23%    100.00%
system.ruby.L2Cache_Controller.IM.Mem_Data::total        91000                      
system.ruby.L2Cache_Controller.MT_MB.Exclusive_Unblock |       33792      6.20%      6.20% |       33792      6.20%     12.40% |       33619      6.17%     18.57% |       34312      6.30%     24.87% |       33813      6.20%     31.07% |       33734      6.19%     37.26% |       33862      6.21%     43.47% |       34261      6.29%     49.76% |       34157      6.27%     56.03% |       33797      6.20%     62.23% |       34027      6.24%     68.47% |       34732      6.37%     74.85% |       34443      6.32%     81.17% |       34455      6.32%     87.49% |       34446      6.32%     93.81% |       33746      6.19%    100.00%
system.ruby.L2Cache_Controller.MT_MB.Exclusive_Unblock::total       544988                      
system.ruby.L2Cache_Controller.MT_IIB.WB_Data |          14      4.17%      4.17% |          14      4.17%      8.33% |          28      8.33%     16.67% |          28      8.33%     25.00% |          27      8.04%     33.04% |          28      8.33%     41.37% |          28      8.33%     49.70% |          28      8.33%     58.04% |          25      7.44%     65.48% |          25      7.44%     72.92% |          21      6.25%     79.17% |          14      4.17%     83.33% |          14      4.17%     87.50% |          14      4.17%     91.67% |          14      4.17%     95.83% |          14      4.17%    100.00%
system.ruby.L2Cache_Controller.MT_IIB.WB_Data::total          336                      
system.ruby.L2Cache_Controller.MT_IIB.Unblock |           0      0.00%      0.00% |           0      0.00%      0.00% |           0      0.00%      0.00% |           0      0.00%      0.00% |           1    100.00%    100.00% |           0      0.00%    100.00% |           0      0.00%    100.00% |           0      0.00%    100.00% |           0      0.00%    100.00% |           0      0.00%    100.00% |           0      0.00%    100.00% |           0      0.00%    100.00% |           0      0.00%    100.00% |           0      0.00%    100.00% |           0      0.00%    100.00% |           0      0.00%    100.00%
system.ruby.L2Cache_Controller.MT_IIB.Unblock::total            1                      
system.ruby.L2Cache_Controller.MT_IB.WB_Data |           0      0.00%      0.00% |           0      0.00%      0.00% |           0      0.00%      0.00% |           0      0.00%      0.00% |           1    100.00%    100.00% |           0      0.00%    100.00% |           0      0.00%    100.00% |           0      0.00%    100.00% |           0      0.00%    100.00% |           0      0.00%    100.00% |           0      0.00%    100.00% |           0      0.00%    100.00% |           0      0.00%    100.00% |           0      0.00%    100.00% |           0      0.00%    100.00% |           0      0.00%    100.00%
system.ruby.L2Cache_Controller.MT_IB.WB_Data::total            1                      
system.ruby.L2Cache_Controller.MT_SB.Unblock |          14      4.17%      4.17% |          14      4.17%      8.33% |          28      8.33%     16.67% |          28      8.33%     25.00% |          27      8.04%     33.04% |          28      8.33%     41.37% |          28      8.33%     49.70% |          28      8.33%     58.04% |          25      7.44%     65.48% |          25      7.44%     72.92% |          21      6.25%     79.17% |          14      4.17%     83.33% |          14      4.17%     87.50% |          14      4.17%     91.67% |          14      4.17%     95.83% |          14      4.17%    100.00%
system.ruby.L2Cache_Controller.MT_SB.Unblock::total          336                      

---------- End Simulation Statistics   ----------
