
---------- Begin Simulation Statistics ----------
sim_seconds                                  0.015980                       # Number of seconds simulated
sim_ticks                                 15980037000                       # Number of ticks simulated
final_tick                                15980037000                       # Number of ticks from beginning of simulation (restored from checkpoints and never reset)
sim_freq                                 1000000000000                       # Frequency of simulated ticks
host_inst_rate                                  55978                       # Simulator instruction rate (inst/s)
host_op_rate                                    97111                       # Simulator op (including micro ops) rate (op/s)
host_tick_rate                               19171731                       # Simulator tick rate (ticks/s)
host_mem_usage                                2045260                       # Number of bytes of host memory used
host_seconds                                   833.52                       # Real time elapsed on the host
sim_insts                                    46659073                       # Number of instructions simulated
sim_ops                                      80944217                       # Number of ops (including micro ops) simulated
system.voltage_domain.voltage                       1                       # Voltage in Volts
system.clk_domain.clock                          1000                       # Clock period in ticks
system.mem_ctrls0.pwrStateResidencyTicks::UNDEFINED  15980037000                       # Cumulative time (in ticks) in various power states
system.mem_ctrls0.bytes_read::ruby.dir_cntrl0     11183808                       # Number of bytes read from this memory
system.mem_ctrls0.bytes_read::total          11183808                       # Number of bytes read from this memory
system.mem_ctrls0.bytes_written::ruby.dir_cntrl0      1707008                       # Number of bytes written to this memory
system.mem_ctrls0.bytes_written::total        1707008                       # Number of bytes written to this memory
system.mem_ctrls0.num_reads::ruby.dir_cntrl0       174747                       # Number of read requests responded to by this memory
system.mem_ctrls0.num_reads::total             174747                       # Number of read requests responded to by this memory
system.mem_ctrls0.num_writes::ruby.dir_cntrl0        26672                       # Number of write requests responded to by this memory
system.mem_ctrls0.num_writes::total             26672                       # Number of write requests responded to by this memory
system.mem_ctrls0.bw_read::ruby.dir_cntrl0    699861208                       # Total read bandwidth from this memory (bytes/s)
system.mem_ctrls0.bw_read::total            699861208                       # Total read bandwidth from this memory (bytes/s)
system.mem_ctrls0.bw_write::ruby.dir_cntrl0    106821280                       # Write bandwidth from this memory (bytes/s)
system.mem_ctrls0.bw_write::total           106821280                       # Write bandwidth from this memory (bytes/s)
system.mem_ctrls0.bw_total::ruby.dir_cntrl0    806682488                       # Total bandwidth to/from this memory (bytes/s)
system.mem_ctrls0.bw_total::total           806682488                       # Total bandwidth to/from this memory (bytes/s)
system.mem_ctrls0.readReqs                     174747                       # Number of read requests accepted
system.mem_ctrls0.avgNetLat                      0.00                       # Average network latency to DRAM controller
system.mem_ctrls0.writeReqs                     26672                       # Number of write requests accepted
system.mem_ctrls0.readBursts                   174747                       # Number of DRAM read bursts, including those serviced by the write queue
system.mem_ctrls0.writeBursts                   26672                       # Number of DRAM write bursts, including those merged in the write queue
system.mem_ctrls0.bytesReadDRAM              11182848                       # Total number of bytes read from DRAM
system.mem_ctrls0.bytesReadWrQ                    960                       # Total number of bytes read from write queue
system.mem_ctrls0.bytesWritten                1705856                       # Total number of bytes written to DRAM
system.mem_ctrls0.bytesReadSys               11183808                       # Total read bytes from the system interface side
system.mem_ctrls0.bytesWrittenSys             1707008                       # Total written bytes from the system interface side
system.mem_ctrls0.servicedByWrQ                    15                       # Number of DRAM read bursts serviced by the write queue
system.mem_ctrls0.mergedWrBursts                    0                       # Number of DRAM write bursts merged with an existing one
system.mem_ctrls0.neitherReadNorWriteReqs            0                       # Number of requests that are neither read nor write
system.mem_ctrls0.perBankRdBursts::0            11204                       # Per bank write bursts
system.mem_ctrls0.perBankRdBursts::1            10610                       # Per bank write bursts
system.mem_ctrls0.perBankRdBursts::2            10664                       # Per bank write bursts
system.mem_ctrls0.perBankRdBursts::3            10385                       # Per bank write bursts
system.mem_ctrls0.perBankRdBursts::4            10290                       # Per bank write bursts
system.mem_ctrls0.perBankRdBursts::5            10249                       # Per bank write bursts
system.mem_ctrls0.perBankRdBursts::6            10715                       # Per bank write bursts
system.mem_ctrls0.perBankRdBursts::7            10798                       # Per bank write bursts
system.mem_ctrls0.perBankRdBursts::8            10718                       # Per bank write bursts
system.mem_ctrls0.perBankRdBursts::9            11008                       # Per bank write bursts
system.mem_ctrls0.perBankRdBursts::10           11290                       # Per bank write bursts
system.mem_ctrls0.perBankRdBursts::11           11371                       # Per bank write bursts
system.mem_ctrls0.perBankRdBursts::12           11909                       # Per bank write bursts
system.mem_ctrls0.perBankRdBursts::13           11809                       # Per bank write bursts
system.mem_ctrls0.perBankRdBursts::14           10956                       # Per bank write bursts
system.mem_ctrls0.perBankRdBursts::15           10756                       # Per bank write bursts
system.mem_ctrls0.perBankWrBursts::0             1701                       # Per bank write bursts
system.mem_ctrls0.perBankWrBursts::1             1523                       # Per bank write bursts
system.mem_ctrls0.perBankWrBursts::2             1637                       # Per bank write bursts
system.mem_ctrls0.perBankWrBursts::3             1534                       # Per bank write bursts
system.mem_ctrls0.perBankWrBursts::4             1518                       # Per bank write bursts
system.mem_ctrls0.perBankWrBursts::5             1476                       # Per bank write bursts
system.mem_ctrls0.perBankWrBursts::6             1646                       # Per bank write bursts
system.mem_ctrls0.perBankWrBursts::7             1595                       # Per bank write bursts
system.mem_ctrls0.perBankWrBursts::8             1718                       # Per bank write bursts
system.mem_ctrls0.perBankWrBursts::9             1799                       # Per bank write bursts
system.mem_ctrls0.perBankWrBursts::10            1778                       # Per bank write bursts
system.mem_ctrls0.perBankWrBursts::11            1773                       # Per bank write bursts
system.mem_ctrls0.perBankWrBursts::12            2011                       # Per bank write bursts
system.mem_ctrls0.perBankWrBursts::13            1830                       # Per bank write bursts
system.mem_ctrls0.perBankWrBursts::14            1572                       # Per bank write bursts
system.mem_ctrls0.perBankWrBursts::15            1543                       # Per bank write bursts
system.mem_ctrls0.numRdRetry                        0                       # Number of times read queue was full causing retry
system.mem_ctrls0.numWrRetry                        0                       # Number of times write queue was full causing retry
system.mem_ctrls0.totGap                  15978843500                       # Total gap between requests
system.mem_ctrls0.readPktSize::0                    0                       # Read request sizes (log2)
system.mem_ctrls0.readPktSize::1                    0                       # Read request sizes (log2)
system.mem_ctrls0.readPktSize::2                    0                       # Read request sizes (log2)
system.mem_ctrls0.readPktSize::3                    0                       # Read request sizes (log2)
system.mem_ctrls0.readPktSize::4                    0                       # Read request sizes (log2)
system.mem_ctrls0.readPktSize::5                    0                       # Read request sizes (log2)
system.mem_ctrls0.readPktSize::6               174747                       # Read request sizes (log2)
system.mem_ctrls0.writePktSize::0                   0                       # Write request sizes (log2)
system.mem_ctrls0.writePktSize::1                   0                       # Write request sizes (log2)
system.mem_ctrls0.writePktSize::2                   0                       # Write request sizes (log2)
system.mem_ctrls0.writePktSize::3                   0                       # Write request sizes (log2)
system.mem_ctrls0.writePktSize::4                   0                       # Write request sizes (log2)
system.mem_ctrls0.writePktSize::5                   0                       # Write request sizes (log2)
system.mem_ctrls0.writePktSize::6               26672                       # Write request sizes (log2)
system.mem_ctrls0.rdQLenPdf::0                  84405                       # What read queue length does an incoming req see
system.mem_ctrls0.rdQLenPdf::1                  47830                       # What read queue length does an incoming req see
system.mem_ctrls0.rdQLenPdf::2                  23940                       # What read queue length does an incoming req see
system.mem_ctrls0.rdQLenPdf::3                  11079                       # What read queue length does an incoming req see
system.mem_ctrls0.rdQLenPdf::4                   4802                       # What read queue length does an incoming req see
system.mem_ctrls0.rdQLenPdf::5                   1794                       # What read queue length does an incoming req see
system.mem_ctrls0.rdQLenPdf::6                    626                       # What read queue length does an incoming req see
system.mem_ctrls0.rdQLenPdf::7                    181                       # What read queue length does an incoming req see
system.mem_ctrls0.rdQLenPdf::8                     51                       # What read queue length does an incoming req see
system.mem_ctrls0.rdQLenPdf::9                     16                       # What read queue length does an incoming req see
system.mem_ctrls0.rdQLenPdf::10                     5                       # What read queue length does an incoming req see
system.mem_ctrls0.rdQLenPdf::11                     1                       # What read queue length does an incoming req see
system.mem_ctrls0.rdQLenPdf::12                     1                       # What read queue length does an incoming req see
system.mem_ctrls0.rdQLenPdf::13                     1                       # What read queue length does an incoming req see
system.mem_ctrls0.rdQLenPdf::14                     0                       # What read queue length does an incoming req see
system.mem_ctrls0.rdQLenPdf::15                     0                       # What read queue length does an incoming req see
system.mem_ctrls0.rdQLenPdf::16                     0                       # What read queue length does an incoming req see
system.mem_ctrls0.rdQLenPdf::17                     0                       # What read queue length does an incoming req see
system.mem_ctrls0.rdQLenPdf::18                     0                       # What read queue length does an incoming req see
system.mem_ctrls0.rdQLenPdf::19                     0                       # What read queue length does an incoming req see
system.mem_ctrls0.rdQLenPdf::20                     0                       # What read queue length does an incoming req see
system.mem_ctrls0.rdQLenPdf::21                     0                       # What read queue length does an incoming req see
system.mem_ctrls0.rdQLenPdf::22                     0                       # What read queue length does an incoming req see
system.mem_ctrls0.rdQLenPdf::23                     0                       # What read queue length does an incoming req see
system.mem_ctrls0.rdQLenPdf::24                     0                       # What read queue length does an incoming req see
system.mem_ctrls0.rdQLenPdf::25                     0                       # What read queue length does an incoming req see
system.mem_ctrls0.rdQLenPdf::26                     0                       # What read queue length does an incoming req see
system.mem_ctrls0.rdQLenPdf::27                     0                       # What read queue length does an incoming req see
system.mem_ctrls0.rdQLenPdf::28                     0                       # What read queue length does an incoming req see
system.mem_ctrls0.rdQLenPdf::29                     0                       # What read queue length does an incoming req see
system.mem_ctrls0.rdQLenPdf::30                     0                       # What read queue length does an incoming req see
system.mem_ctrls0.rdQLenPdf::31                     0                       # What read queue length does an incoming req see
system.mem_ctrls0.wrQLenPdf::0                      1                       # What write queue length does an incoming req see
system.mem_ctrls0.wrQLenPdf::1                      1                       # What write queue length does an incoming req see
system.mem_ctrls0.wrQLenPdf::2                      1                       # What write queue length does an incoming req see
system.mem_ctrls0.wrQLenPdf::3                      1                       # What write queue length does an incoming req see
system.mem_ctrls0.wrQLenPdf::4                      1                       # What write queue length does an incoming req see
system.mem_ctrls0.wrQLenPdf::5                      1                       # What write queue length does an incoming req see
system.mem_ctrls0.wrQLenPdf::6                      1                       # What write queue length does an incoming req see
system.mem_ctrls0.wrQLenPdf::7                      1                       # What write queue length does an incoming req see
system.mem_ctrls0.wrQLenPdf::8                      1                       # What write queue length does an incoming req see
system.mem_ctrls0.wrQLenPdf::9                      1                       # What write queue length does an incoming req see
system.mem_ctrls0.wrQLenPdf::10                     1                       # What write queue length does an incoming req see
system.mem_ctrls0.wrQLenPdf::11                     1                       # What write queue length does an incoming req see
system.mem_ctrls0.wrQLenPdf::12                     1                       # What write queue length does an incoming req see
system.mem_ctrls0.wrQLenPdf::13                     1                       # What write queue length does an incoming req see
system.mem_ctrls0.wrQLenPdf::14                     1                       # What write queue length does an incoming req see
system.mem_ctrls0.wrQLenPdf::15                   296                       # What write queue length does an incoming req see
system.mem_ctrls0.wrQLenPdf::16                   361                       # What write queue length does an incoming req see
system.mem_ctrls0.wrQLenPdf::17                   874                       # What write queue length does an incoming req see
system.mem_ctrls0.wrQLenPdf::18                  1443                       # What write queue length does an incoming req see
system.mem_ctrls0.wrQLenPdf::19                  1636                       # What write queue length does an incoming req see
system.mem_ctrls0.wrQLenPdf::20                  1694                       # What write queue length does an incoming req see
system.mem_ctrls0.wrQLenPdf::21                  1694                       # What write queue length does an incoming req see
system.mem_ctrls0.wrQLenPdf::22                  1709                       # What write queue length does an incoming req see
system.mem_ctrls0.wrQLenPdf::23                  1705                       # What write queue length does an incoming req see
system.mem_ctrls0.wrQLenPdf::24                  1691                       # What write queue length does an incoming req see
system.mem_ctrls0.wrQLenPdf::25                  1703                       # What write queue length does an incoming req see
system.mem_ctrls0.wrQLenPdf::26                  1687                       # What write queue length does an incoming req see
system.mem_ctrls0.wrQLenPdf::27                  1679                       # What write queue length does an incoming req see
system.mem_ctrls0.wrQLenPdf::28                  1681                       # What write queue length does an incoming req see
system.mem_ctrls0.wrQLenPdf::29                  1673                       # What write queue length does an incoming req see
system.mem_ctrls0.wrQLenPdf::30                  1677                       # What write queue length does an incoming req see
system.mem_ctrls0.wrQLenPdf::31                  1680                       # What write queue length does an incoming req see
system.mem_ctrls0.wrQLenPdf::32                  1674                       # What write queue length does an incoming req see
system.mem_ctrls0.wrQLenPdf::33                    80                       # What write queue length does an incoming req see
system.mem_ctrls0.wrQLenPdf::34                    15                       # What write queue length does an incoming req see
system.mem_ctrls0.wrQLenPdf::35                     3                       # What write queue length does an incoming req see
system.mem_ctrls0.wrQLenPdf::36                     1                       # What write queue length does an incoming req see
system.mem_ctrls0.wrQLenPdf::37                     1                       # What write queue length does an incoming req see
system.mem_ctrls0.wrQLenPdf::38                     0                       # What write queue length does an incoming req see
system.mem_ctrls0.wrQLenPdf::39                     0                       # What write queue length does an incoming req see
system.mem_ctrls0.wrQLenPdf::40                     0                       # What write queue length does an incoming req see
system.mem_ctrls0.wrQLenPdf::41                     0                       # What write queue length does an incoming req see
system.mem_ctrls0.wrQLenPdf::42                     0                       # What write queue length does an incoming req see
system.mem_ctrls0.wrQLenPdf::43                     0                       # What write queue length does an incoming req see
system.mem_ctrls0.wrQLenPdf::44                     0                       # What write queue length does an incoming req see
system.mem_ctrls0.wrQLenPdf::45                     0                       # What write queue length does an incoming req see
system.mem_ctrls0.wrQLenPdf::46                     0                       # What write queue length does an incoming req see
system.mem_ctrls0.wrQLenPdf::47                     0                       # What write queue length does an incoming req see
system.mem_ctrls0.wrQLenPdf::48                     0                       # What write queue length does an incoming req see
system.mem_ctrls0.wrQLenPdf::49                     0                       # What write queue length does an incoming req see
system.mem_ctrls0.wrQLenPdf::50                     0                       # What write queue length does an incoming req see
system.mem_ctrls0.wrQLenPdf::51                     0                       # What write queue length does an incoming req see
system.mem_ctrls0.wrQLenPdf::52                     0                       # What write queue length does an incoming req see
system.mem_ctrls0.wrQLenPdf::53                     0                       # What write queue length does an incoming req see
system.mem_ctrls0.wrQLenPdf::54                     0                       # What write queue length does an incoming req see
system.mem_ctrls0.wrQLenPdf::55                     0                       # What write queue length does an incoming req see
system.mem_ctrls0.wrQLenPdf::56                     0                       # What write queue length does an incoming req see
system.mem_ctrls0.wrQLenPdf::57                     0                       # What write queue length does an incoming req see
system.mem_ctrls0.wrQLenPdf::58                     0                       # What write queue length does an incoming req see
system.mem_ctrls0.wrQLenPdf::59                     0                       # What write queue length does an incoming req see
system.mem_ctrls0.wrQLenPdf::60                     0                       # What write queue length does an incoming req see
system.mem_ctrls0.wrQLenPdf::61                     0                       # What write queue length does an incoming req see
system.mem_ctrls0.wrQLenPdf::62                     0                       # What write queue length does an incoming req see
system.mem_ctrls0.wrQLenPdf::63                     0                       # What write queue length does an incoming req see
system.mem_ctrls0.bytesPerActivate::samples       115849                       # Bytes accessed per row activation
system.mem_ctrls0.bytesPerActivate::mean   111.251577                       # Bytes accessed per row activation
system.mem_ctrls0.bytesPerActivate::gmean    88.127312                       # Bytes accessed per row activation
system.mem_ctrls0.bytesPerActivate::stdev   110.987238                       # Bytes accessed per row activation
system.mem_ctrls0.bytesPerActivate::0-127        82122     70.89%     70.89% # Bytes accessed per row activation
system.mem_ctrls0.bytesPerActivate::128-255        22246     19.20%     90.09% # Bytes accessed per row activation
system.mem_ctrls0.bytesPerActivate::256-383         5567      4.81%     94.90% # Bytes accessed per row activation
system.mem_ctrls0.bytesPerActivate::384-511         2944      2.54%     97.44% # Bytes accessed per row activation
system.mem_ctrls0.bytesPerActivate::512-639         1516      1.31%     98.74% # Bytes accessed per row activation
system.mem_ctrls0.bytesPerActivate::640-767         1150      0.99%     99.74% # Bytes accessed per row activation
system.mem_ctrls0.bytesPerActivate::768-895          103      0.09%     99.83% # Bytes accessed per row activation
system.mem_ctrls0.bytesPerActivate::896-1023           81      0.07%     99.90% # Bytes accessed per row activation
system.mem_ctrls0.bytesPerActivate::1024-1151          120      0.10%    100.00% # Bytes accessed per row activation
system.mem_ctrls0.bytesPerActivate::total       115849                       # Bytes accessed per row activation
system.mem_ctrls0.rdPerTurnAround::samples         1621                       # Reads before turning the bus around for writes
system.mem_ctrls0.rdPerTurnAround::mean    107.789636                       # Reads before turning the bus around for writes
system.mem_ctrls0.rdPerTurnAround::gmean    41.376590                       # Reads before turning the bus around for writes
system.mem_ctrls0.rdPerTurnAround::stdev  1606.392727                       # Reads before turning the bus around for writes
system.mem_ctrls0.rdPerTurnAround::0-2047         1620     99.94%     99.94% # Reads before turning the bus around for writes
system.mem_ctrls0.rdPerTurnAround::63488-65535            1      0.06%    100.00% # Reads before turning the bus around for writes
system.mem_ctrls0.rdPerTurnAround::total         1621                       # Reads before turning the bus around for writes
system.mem_ctrls0.wrPerTurnAround::samples         1621                       # Writes before turning the bus around for reads
system.mem_ctrls0.wrPerTurnAround::mean     16.442936                       # Writes before turning the bus around for reads
system.mem_ctrls0.wrPerTurnAround::gmean    16.421669                       # Writes before turning the bus around for reads
system.mem_ctrls0.wrPerTurnAround::stdev     0.861370                       # Writes before turning the bus around for reads
system.mem_ctrls0.wrPerTurnAround::16            1253     77.30%     77.30% # Writes before turning the bus around for reads
system.mem_ctrls0.wrPerTurnAround::17              49      3.02%     80.32% # Writes before turning the bus around for reads
system.mem_ctrls0.wrPerTurnAround::18             300     18.51%     98.83% # Writes before turning the bus around for reads
system.mem_ctrls0.wrPerTurnAround::19              12      0.74%     99.57% # Writes before turning the bus around for reads
system.mem_ctrls0.wrPerTurnAround::20               4      0.25%     99.81% # Writes before turning the bus around for reads
system.mem_ctrls0.wrPerTurnAround::21               2      0.12%     99.94% # Writes before turning the bus around for reads
system.mem_ctrls0.wrPerTurnAround::23               1      0.06%    100.00% # Writes before turning the bus around for reads
system.mem_ctrls0.wrPerTurnAround::total         1621                       # Writes before turning the bus around for reads
system.mem_ctrls0.totQLat                  4954436750                       # Total ticks spent queuing
system.mem_ctrls0.totMemAccLat             8230661750                       # Total ticks spent from burst creation until serviced by the DRAM
system.mem_ctrls0.totBusLat                 873660000                       # Total ticks spent in databus transfers
system.mem_ctrls0.avgQLat                    28354.49                       # Average queueing delay per DRAM burst
system.mem_ctrls0.avgBusLat                   5000.00                       # Average bus latency per DRAM burst
system.mem_ctrls0.avgMemAccLat               47104.49                       # Average memory access latency per DRAM burst
system.mem_ctrls0.avgRdBW                      699.80                       # Average DRAM read bandwidth in MiByte/s
system.mem_ctrls0.avgWrBW                      106.75                       # Average achieved write bandwidth in MiByte/s
system.mem_ctrls0.avgRdBWSys                   699.86                       # Average system read bandwidth in MiByte/s
system.mem_ctrls0.avgWrBWSys                   106.82                       # Average system write bandwidth in MiByte/s
system.mem_ctrls0.peakBW                     12800.00                       # Theoretical peak bandwidth in MiByte/s
system.mem_ctrls0.busUtil                        6.30                       # Data bus utilization in percentage
system.mem_ctrls0.busUtilRead                    5.47                       # Data bus utilization in percentage for reads
system.mem_ctrls0.busUtilWrite                   0.83                       # Data bus utilization in percentage for writes
system.mem_ctrls0.avgRdQLen                      1.60                       # Average read queue length when enqueuing
system.mem_ctrls0.avgWrQLen                     13.23                       # Average write queue length when enqueuing
system.mem_ctrls0.readRowHits                   81304                       # Number of row buffer hits during reads
system.mem_ctrls0.writeRowHits                   4230                       # Number of row buffer hits during writes
system.mem_ctrls0.readRowHitRate                46.53                       # Row buffer hit rate for reads
system.mem_ctrls0.writeRowHitRate               15.86                       # Row buffer hit rate for writes
system.mem_ctrls0.avgGap                     79331.36                       # Average gap between requests
system.mem_ctrls0.pageHitRate                   42.47                       # Row buffer hit rate, read and write combined
system.mem_ctrls0_0.actEnergy               394692060                       # Energy for activate commands per rank (pJ)
system.mem_ctrls0_0.preEnergy               209776215                       # Energy for precharge commands per rank (pJ)
system.mem_ctrls0_0.readEnergy              606293100                       # Energy for read commands per rank (pJ)
system.mem_ctrls0_0.writeEnergy              65928600                       # Energy for write commands per rank (pJ)
system.mem_ctrls0_0.refreshEnergy        1247104560.000000                       # Energy for refresh commands per rank (pJ)
system.mem_ctrls0_0.actBackEnergy          1568693580                       # Energy for active background per rank (pJ)
system.mem_ctrls0_0.preBackEnergy            33290400                       # Energy for precharge background per rank (pJ)
system.mem_ctrls0_0.actPowerDownEnergy     5183831370                       # Energy for active power-down per rank (pJ)
system.mem_ctrls0_0.prePowerDownEnergy      267718560                       # Energy for precharge power-down per rank (pJ)
system.mem_ctrls0_0.selfRefreshEnergy       109191270                       # Energy for self refresh per rank (pJ)
system.mem_ctrls0_0.totalEnergy            9686617485                       # Total energy per rank (pJ)
system.mem_ctrls0_0.averagePower           606.169884                       # Core power per rank (mW)
system.mem_ctrls0_0.totalIdleTime         12452964500                       # Total Idle time Per DRAM Rank
system.mem_ctrls0_0.memoryStateTime::IDLE     18971750                       # Time in different power states
system.mem_ctrls0_0.memoryStateTime::REF    527750000                       # Time in different power states
system.mem_ctrls0_0.memoryStateTime::SREF    387772750                       # Time in different power states
system.mem_ctrls0_0.memoryStateTime::PRE_PDN    697321250                       # Time in different power states
system.mem_ctrls0_0.memoryStateTime::ACT   2980350750                       # Time in different power states
system.mem_ctrls0_0.memoryStateTime::ACT_PDN  11367870500                       # Time in different power states
system.mem_ctrls0_1.actEnergy               432491220                       # Energy for activate commands per rank (pJ)
system.mem_ctrls0_1.preEnergy               229870740                       # Energy for precharge commands per rank (pJ)
system.mem_ctrls0_1.readEnergy              641293380                       # Energy for read commands per rank (pJ)
system.mem_ctrls0_1.writeEnergy              73205280                       # Energy for write commands per rank (pJ)
system.mem_ctrls0_1.refreshEnergy        1238499600.000000                       # Energy for refresh commands per rank (pJ)
system.mem_ctrls0_1.actBackEnergy          1647212220                       # Energy for active background per rank (pJ)
system.mem_ctrls0_1.preBackEnergy            31972800                       # Energy for precharge background per rank (pJ)
system.mem_ctrls0_1.actPowerDownEnergy     5189574120                       # Energy for active power-down per rank (pJ)
system.mem_ctrls0_1.prePowerDownEnergy      208094880                       # Energy for precharge power-down per rank (pJ)
system.mem_ctrls0_1.selfRefreshEnergy        92438910                       # Energy for self refresh per rank (pJ)
system.mem_ctrls0_1.totalEnergy            9784838130                       # Total energy per rank (pJ)
system.mem_ctrls0_1.averagePower           612.316343                       # Core power per rank (mW)
system.mem_ctrls0_1.totalIdleTime         12283695250                       # Total Idle time Per DRAM Rank
system.mem_ctrls0_1.memoryStateTime::IDLE     14175000                       # Time in different power states
system.mem_ctrls0_1.memoryStateTime::REF    524014000                       # Time in different power states
system.mem_ctrls0_1.memoryStateTime::SREF    361501250                       # Time in different power states
system.mem_ctrls0_1.memoryStateTime::PRE_PDN    541696500                       # Time in different power states
system.mem_ctrls0_1.memoryStateTime::ACT   3157078500                       # Time in different power states
system.mem_ctrls0_1.memoryStateTime::ACT_PDN  11381571750                       # Time in different power states
system.mem_ctrls1.pwrStateResidencyTicks::UNDEFINED  15980037000                       # Cumulative time (in ticks) in various power states
system.mem_ctrls1.bytes_read::ruby.dir_cntrl1     11147456                       # Number of bytes read from this memory
system.mem_ctrls1.bytes_read::total          11147456                       # Number of bytes read from this memory
system.mem_ctrls1.bytes_written::ruby.dir_cntrl1      1689856                       # Number of bytes written to this memory
system.mem_ctrls1.bytes_written::total        1689856                       # Number of bytes written to this memory
system.mem_ctrls1.num_reads::ruby.dir_cntrl1       174179                       # Number of read requests responded to by this memory
system.mem_ctrls1.num_reads::total             174179                       # Number of read requests responded to by this memory
system.mem_ctrls1.num_writes::ruby.dir_cntrl1        26404                       # Number of write requests responded to by this memory
system.mem_ctrls1.num_writes::total             26404                       # Number of write requests responded to by this memory
system.mem_ctrls1.bw_read::ruby.dir_cntrl1    697586370                       # Total read bandwidth from this memory (bytes/s)
system.mem_ctrls1.bw_read::total            697586370                       # Total read bandwidth from this memory (bytes/s)
system.mem_ctrls1.bw_write::ruby.dir_cntrl1    105747940                       # Write bandwidth from this memory (bytes/s)
system.mem_ctrls1.bw_write::total           105747940                       # Write bandwidth from this memory (bytes/s)
system.mem_ctrls1.bw_total::ruby.dir_cntrl1    803334310                       # Total bandwidth to/from this memory (bytes/s)
system.mem_ctrls1.bw_total::total           803334310                       # Total bandwidth to/from this memory (bytes/s)
system.mem_ctrls1.readReqs                     174179                       # Number of read requests accepted
system.mem_ctrls1.avgNetLat                      0.00                       # Average network latency to DRAM controller
system.mem_ctrls1.writeReqs                     26404                       # Number of write requests accepted
system.mem_ctrls1.readBursts                   174179                       # Number of DRAM read bursts, including those serviced by the write queue
system.mem_ctrls1.writeBursts                   26404                       # Number of DRAM write bursts, including those merged in the write queue
system.mem_ctrls1.bytesReadDRAM              11147008                       # Total number of bytes read from DRAM
system.mem_ctrls1.bytesReadWrQ                    448                       # Total number of bytes read from write queue
system.mem_ctrls1.bytesWritten                1688128                       # Total number of bytes written to DRAM
system.mem_ctrls1.bytesReadSys               11147456                       # Total read bytes from the system interface side
system.mem_ctrls1.bytesWrittenSys             1689856                       # Total written bytes from the system interface side
system.mem_ctrls1.servicedByWrQ                     7                       # Number of DRAM read bursts serviced by the write queue
system.mem_ctrls1.mergedWrBursts                    0                       # Number of DRAM write bursts merged with an existing one
system.mem_ctrls1.neitherReadNorWriteReqs            0                       # Number of requests that are neither read nor write
system.mem_ctrls1.perBankRdBursts::0            11095                       # Per bank write bursts
system.mem_ctrls1.perBankRdBursts::1            10515                       # Per bank write bursts
system.mem_ctrls1.perBankRdBursts::2            10661                       # Per bank write bursts
system.mem_ctrls1.perBankRdBursts::3            10356                       # Per bank write bursts
system.mem_ctrls1.perBankRdBursts::4            10225                       # Per bank write bursts
system.mem_ctrls1.perBankRdBursts::5            10225                       # Per bank write bursts
system.mem_ctrls1.perBankRdBursts::6            10683                       # Per bank write bursts
system.mem_ctrls1.perBankRdBursts::7            10793                       # Per bank write bursts
system.mem_ctrls1.perBankRdBursts::8            10718                       # Per bank write bursts
system.mem_ctrls1.perBankRdBursts::9            10961                       # Per bank write bursts
system.mem_ctrls1.perBankRdBursts::10           11237                       # Per bank write bursts
system.mem_ctrls1.perBankRdBursts::11           11350                       # Per bank write bursts
system.mem_ctrls1.perBankRdBursts::12           11854                       # Per bank write bursts
system.mem_ctrls1.perBankRdBursts::13           11750                       # Per bank write bursts
system.mem_ctrls1.perBankRdBursts::14           10976                       # Per bank write bursts
system.mem_ctrls1.perBankRdBursts::15           10773                       # Per bank write bursts
system.mem_ctrls1.perBankWrBursts::0             1681                       # Per bank write bursts
system.mem_ctrls1.perBankWrBursts::1             1477                       # Per bank write bursts
system.mem_ctrls1.perBankWrBursts::2             1650                       # Per bank write bursts
system.mem_ctrls1.perBankWrBursts::3             1517                       # Per bank write bursts
system.mem_ctrls1.perBankWrBursts::4             1476                       # Per bank write bursts
system.mem_ctrls1.perBankWrBursts::5             1433                       # Per bank write bursts
system.mem_ctrls1.perBankWrBursts::6             1593                       # Per bank write bursts
system.mem_ctrls1.perBankWrBursts::7             1611                       # Per bank write bursts
system.mem_ctrls1.perBankWrBursts::8             1713                       # Per bank write bursts
system.mem_ctrls1.perBankWrBursts::9             1758                       # Per bank write bursts
system.mem_ctrls1.perBankWrBursts::10            1771                       # Per bank write bursts
system.mem_ctrls1.perBankWrBursts::11            1761                       # Per bank write bursts
system.mem_ctrls1.perBankWrBursts::12            2013                       # Per bank write bursts
system.mem_ctrls1.perBankWrBursts::13            1770                       # Per bank write bursts
system.mem_ctrls1.perBankWrBursts::14            1606                       # Per bank write bursts
system.mem_ctrls1.perBankWrBursts::15            1547                       # Per bank write bursts
system.mem_ctrls1.numRdRetry                        0                       # Number of times read queue was full causing retry
system.mem_ctrls1.numWrRetry                        0                       # Number of times write queue was full causing retry
system.mem_ctrls1.totGap                  15979314000                       # Total gap between requests
system.mem_ctrls1.readPktSize::0                    0                       # Read request sizes (log2)
system.mem_ctrls1.readPktSize::1                    0                       # Read request sizes (log2)
system.mem_ctrls1.readPktSize::2                    0                       # Read request sizes (log2)
system.mem_ctrls1.readPktSize::3                    0                       # Read request sizes (log2)
system.mem_ctrls1.readPktSize::4                    0                       # Read request sizes (log2)
system.mem_ctrls1.readPktSize::5                    0                       # Read request sizes (log2)
system.mem_ctrls1.readPktSize::6               174179                       # Read request sizes (log2)
system.mem_ctrls1.writePktSize::0                   0                       # Write request sizes (log2)
system.mem_ctrls1.writePktSize::1                   0                       # Write request sizes (log2)
system.mem_ctrls1.writePktSize::2                   0                       # Write request sizes (log2)
system.mem_ctrls1.writePktSize::3                   0                       # Write request sizes (log2)
system.mem_ctrls1.writePktSize::4                   0                       # Write request sizes (log2)
system.mem_ctrls1.writePktSize::5                   0                       # Write request sizes (log2)
system.mem_ctrls1.writePktSize::6               26404                       # Write request sizes (log2)
system.mem_ctrls1.rdQLenPdf::0                  84311                       # What read queue length does an incoming req see
system.mem_ctrls1.rdQLenPdf::1                  47454                       # What read queue length does an incoming req see
system.mem_ctrls1.rdQLenPdf::2                  23812                       # What read queue length does an incoming req see
system.mem_ctrls1.rdQLenPdf::3                  11142                       # What read queue length does an incoming req see
system.mem_ctrls1.rdQLenPdf::4                   4722                       # What read queue length does an incoming req see
system.mem_ctrls1.rdQLenPdf::5                   1790                       # What read queue length does an incoming req see
system.mem_ctrls1.rdQLenPdf::6                    638                       # What read queue length does an incoming req see
system.mem_ctrls1.rdQLenPdf::7                    221                       # What read queue length does an incoming req see
system.mem_ctrls1.rdQLenPdf::8                     61                       # What read queue length does an incoming req see
system.mem_ctrls1.rdQLenPdf::9                     15                       # What read queue length does an incoming req see
system.mem_ctrls1.rdQLenPdf::10                     6                       # What read queue length does an incoming req see
system.mem_ctrls1.rdQLenPdf::11                     0                       # What read queue length does an incoming req see
system.mem_ctrls1.rdQLenPdf::12                     0                       # What read queue length does an incoming req see
system.mem_ctrls1.rdQLenPdf::13                     0                       # What read queue length does an incoming req see
system.mem_ctrls1.rdQLenPdf::14                     0                       # What read queue length does an incoming req see
system.mem_ctrls1.rdQLenPdf::15                     0                       # What read queue length does an incoming req see
system.mem_ctrls1.rdQLenPdf::16                     0                       # What read queue length does an incoming req see
system.mem_ctrls1.rdQLenPdf::17                     0                       # What read queue length does an incoming req see
system.mem_ctrls1.rdQLenPdf::18                     0                       # What read queue length does an incoming req see
system.mem_ctrls1.rdQLenPdf::19                     0                       # What read queue length does an incoming req see
system.mem_ctrls1.rdQLenPdf::20                     0                       # What read queue length does an incoming req see
system.mem_ctrls1.rdQLenPdf::21                     0                       # What read queue length does an incoming req see
system.mem_ctrls1.rdQLenPdf::22                     0                       # What read queue length does an incoming req see
system.mem_ctrls1.rdQLenPdf::23                     0                       # What read queue length does an incoming req see
system.mem_ctrls1.rdQLenPdf::24                     0                       # What read queue length does an incoming req see
system.mem_ctrls1.rdQLenPdf::25                     0                       # What read queue length does an incoming req see
system.mem_ctrls1.rdQLenPdf::26                     0                       # What read queue length does an incoming req see
system.mem_ctrls1.rdQLenPdf::27                     0                       # What read queue length does an incoming req see
system.mem_ctrls1.rdQLenPdf::28                     0                       # What read queue length does an incoming req see
system.mem_ctrls1.rdQLenPdf::29                     0                       # What read queue length does an incoming req see
system.mem_ctrls1.rdQLenPdf::30                     0                       # What read queue length does an incoming req see
system.mem_ctrls1.rdQLenPdf::31                     0                       # What read queue length does an incoming req see
system.mem_ctrls1.wrQLenPdf::0                      1                       # What write queue length does an incoming req see
system.mem_ctrls1.wrQLenPdf::1                      1                       # What write queue length does an incoming req see
system.mem_ctrls1.wrQLenPdf::2                      1                       # What write queue length does an incoming req see
system.mem_ctrls1.wrQLenPdf::3                      1                       # What write queue length does an incoming req see
system.mem_ctrls1.wrQLenPdf::4                      1                       # What write queue length does an incoming req see
system.mem_ctrls1.wrQLenPdf::5                      1                       # What write queue length does an incoming req see
system.mem_ctrls1.wrQLenPdf::6                      1                       # What write queue length does an incoming req see
system.mem_ctrls1.wrQLenPdf::7                      1                       # What write queue length does an incoming req see
system.mem_ctrls1.wrQLenPdf::8                      1                       # What write queue length does an incoming req see
system.mem_ctrls1.wrQLenPdf::9                      1                       # What write queue length does an incoming req see
system.mem_ctrls1.wrQLenPdf::10                     1                       # What write queue length does an incoming req see
system.mem_ctrls1.wrQLenPdf::11                     1                       # What write queue length does an incoming req see
system.mem_ctrls1.wrQLenPdf::12                     1                       # What write queue length does an incoming req see
system.mem_ctrls1.wrQLenPdf::13                     1                       # What write queue length does an incoming req see
system.mem_ctrls1.wrQLenPdf::14                     1                       # What write queue length does an incoming req see
system.mem_ctrls1.wrQLenPdf::15                   312                       # What write queue length does an incoming req see
system.mem_ctrls1.wrQLenPdf::16                   372                       # What write queue length does an incoming req see
system.mem_ctrls1.wrQLenPdf::17                   904                       # What write queue length does an incoming req see
system.mem_ctrls1.wrQLenPdf::18                  1414                       # What write queue length does an incoming req see
system.mem_ctrls1.wrQLenPdf::19                  1631                       # What write queue length does an incoming req see
system.mem_ctrls1.wrQLenPdf::20                  1693                       # What write queue length does an incoming req see
system.mem_ctrls1.wrQLenPdf::21                  1689                       # What write queue length does an incoming req see
system.mem_ctrls1.wrQLenPdf::22                  1659                       # What write queue length does an incoming req see
system.mem_ctrls1.wrQLenPdf::23                  1688                       # What write queue length does an incoming req see
system.mem_ctrls1.wrQLenPdf::24                  1664                       # What write queue length does an incoming req see
system.mem_ctrls1.wrQLenPdf::25                  1671                       # What write queue length does an incoming req see
system.mem_ctrls1.wrQLenPdf::26                  1678                       # What write queue length does an incoming req see
system.mem_ctrls1.wrQLenPdf::27                  1673                       # What write queue length does an incoming req see
system.mem_ctrls1.wrQLenPdf::28                  1670                       # What write queue length does an incoming req see
system.mem_ctrls1.wrQLenPdf::29                  1647                       # What write queue length does an incoming req see
system.mem_ctrls1.wrQLenPdf::30                  1650                       # What write queue length does an incoming req see
system.mem_ctrls1.wrQLenPdf::31                  1660                       # What write queue length does an incoming req see
system.mem_ctrls1.wrQLenPdf::32                  1654                       # What write queue length does an incoming req see
system.mem_ctrls1.wrQLenPdf::33                    48                       # What write queue length does an incoming req see
system.mem_ctrls1.wrQLenPdf::34                     9                       # What write queue length does an incoming req see
system.mem_ctrls1.wrQLenPdf::35                     2                       # What write queue length does an incoming req see
system.mem_ctrls1.wrQLenPdf::36                     1                       # What write queue length does an incoming req see
system.mem_ctrls1.wrQLenPdf::37                     0                       # What write queue length does an incoming req see
system.mem_ctrls1.wrQLenPdf::38                     0                       # What write queue length does an incoming req see
system.mem_ctrls1.wrQLenPdf::39                     0                       # What write queue length does an incoming req see
system.mem_ctrls1.wrQLenPdf::40                     0                       # What write queue length does an incoming req see
system.mem_ctrls1.wrQLenPdf::41                     0                       # What write queue length does an incoming req see
system.mem_ctrls1.wrQLenPdf::42                     0                       # What write queue length does an incoming req see
system.mem_ctrls1.wrQLenPdf::43                     0                       # What write queue length does an incoming req see
system.mem_ctrls1.wrQLenPdf::44                     0                       # What write queue length does an incoming req see
system.mem_ctrls1.wrQLenPdf::45                     0                       # What write queue length does an incoming req see
system.mem_ctrls1.wrQLenPdf::46                     0                       # What write queue length does an incoming req see
system.mem_ctrls1.wrQLenPdf::47                     0                       # What write queue length does an incoming req see
system.mem_ctrls1.wrQLenPdf::48                     0                       # What write queue length does an incoming req see
system.mem_ctrls1.wrQLenPdf::49                     0                       # What write queue length does an incoming req see
system.mem_ctrls1.wrQLenPdf::50                     0                       # What write queue length does an incoming req see
system.mem_ctrls1.wrQLenPdf::51                     0                       # What write queue length does an incoming req see
system.mem_ctrls1.wrQLenPdf::52                     0                       # What write queue length does an incoming req see
system.mem_ctrls1.wrQLenPdf::53                     0                       # What write queue length does an incoming req see
system.mem_ctrls1.wrQLenPdf::54                     0                       # What write queue length does an incoming req see
system.mem_ctrls1.wrQLenPdf::55                     0                       # What write queue length does an incoming req see
system.mem_ctrls1.wrQLenPdf::56                     0                       # What write queue length does an incoming req see
system.mem_ctrls1.wrQLenPdf::57                     0                       # What write queue length does an incoming req see
system.mem_ctrls1.wrQLenPdf::58                     0                       # What write queue length does an incoming req see
system.mem_ctrls1.wrQLenPdf::59                     0                       # What write queue length does an incoming req see
system.mem_ctrls1.wrQLenPdf::60                     0                       # What write queue length does an incoming req see
system.mem_ctrls1.wrQLenPdf::61                     0                       # What write queue length does an incoming req see
system.mem_ctrls1.wrQLenPdf::62                     0                       # What write queue length does an incoming req see
system.mem_ctrls1.wrQLenPdf::63                     0                       # What write queue length does an incoming req see
system.mem_ctrls1.bytesPerActivate::samples       114758                       # Bytes accessed per row activation
system.mem_ctrls1.bytesPerActivate::mean   111.837990                       # Bytes accessed per row activation
system.mem_ctrls1.bytesPerActivate::gmean    88.440067                       # Bytes accessed per row activation
system.mem_ctrls1.bytesPerActivate::stdev   112.115039                       # Bytes accessed per row activation
system.mem_ctrls1.bytesPerActivate::0-127        80953     70.54%     70.54% # Bytes accessed per row activation
system.mem_ctrls1.bytesPerActivate::128-255        22437     19.55%     90.09% # Bytes accessed per row activation
system.mem_ctrls1.bytesPerActivate::256-383         5387      4.69%     94.79% # Bytes accessed per row activation
system.mem_ctrls1.bytesPerActivate::384-511         2959      2.58%     97.37% # Bytes accessed per row activation
system.mem_ctrls1.bytesPerActivate::512-639         1577      1.37%     98.74% # Bytes accessed per row activation
system.mem_ctrls1.bytesPerActivate::640-767         1104      0.96%     99.70% # Bytes accessed per row activation
system.mem_ctrls1.bytesPerActivate::768-895          119      0.10%     99.81% # Bytes accessed per row activation
system.mem_ctrls1.bytesPerActivate::896-1023           78      0.07%     99.87% # Bytes accessed per row activation
system.mem_ctrls1.bytesPerActivate::1024-1151          144      0.13%    100.00% # Bytes accessed per row activation
system.mem_ctrls1.bytesPerActivate::total       114758                       # Bytes accessed per row activation
system.mem_ctrls1.rdPerTurnAround::samples         1603                       # Reads before turning the bus around for writes
system.mem_ctrls1.rdPerTurnAround::mean    108.643793                       # Reads before turning the bus around for writes
system.mem_ctrls1.rdPerTurnAround::gmean    41.472450                       # Reads before turning the bus around for writes
system.mem_ctrls1.rdPerTurnAround::stdev  1604.275730                       # Reads before turning the bus around for writes
system.mem_ctrls1.rdPerTurnAround::0-2047         1602     99.94%     99.94% # Reads before turning the bus around for writes
system.mem_ctrls1.rdPerTurnAround::63488-65535            1      0.06%    100.00% # Reads before turning the bus around for writes
system.mem_ctrls1.rdPerTurnAround::total         1603                       # Reads before turning the bus around for writes
system.mem_ctrls1.wrPerTurnAround::samples         1603                       # Writes before turning the bus around for reads
system.mem_ctrls1.wrPerTurnAround::mean     16.454772                       # Writes before turning the bus around for reads
system.mem_ctrls1.wrPerTurnAround::gmean    16.434753                       # Writes before turning the bus around for reads
system.mem_ctrls1.wrPerTurnAround::stdev     0.829945                       # Writes before turning the bus around for reads
system.mem_ctrls1.wrPerTurnAround::16            1217     75.92%     75.92% # Writes before turning the bus around for reads
system.mem_ctrls1.wrPerTurnAround::17              53      3.31%     79.23% # Writes before turning the bus around for reads
system.mem_ctrls1.wrPerTurnAround::18             323     20.15%     99.38% # Writes before turning the bus around for reads
system.mem_ctrls1.wrPerTurnAround::19              10      0.62%    100.00% # Writes before turning the bus around for reads
system.mem_ctrls1.wrPerTurnAround::total         1603                       # Writes before turning the bus around for reads
system.mem_ctrls1.totQLat                  4877756000                       # Total ticks spent queuing
system.mem_ctrls1.totMemAccLat             8143481000                       # Total ticks spent from burst creation until serviced by the DRAM
system.mem_ctrls1.totBusLat                 870860000                       # Total ticks spent in databus transfers
system.mem_ctrls1.avgQLat                    28005.40                       # Average queueing delay per DRAM burst
system.mem_ctrls1.avgBusLat                   5000.00                       # Average bus latency per DRAM burst
system.mem_ctrls1.avgMemAccLat               46755.40                       # Average memory access latency per DRAM burst
system.mem_ctrls1.avgRdBW                      697.56                       # Average DRAM read bandwidth in MiByte/s
system.mem_ctrls1.avgWrBW                      105.64                       # Average achieved write bandwidth in MiByte/s
system.mem_ctrls1.avgRdBWSys                   697.59                       # Average system read bandwidth in MiByte/s
system.mem_ctrls1.avgWrBWSys                   105.75                       # Average system write bandwidth in MiByte/s
system.mem_ctrls1.peakBW                     12800.00                       # Theoretical peak bandwidth in MiByte/s
system.mem_ctrls1.busUtil                        6.27                       # Data bus utilization in percentage
system.mem_ctrls1.busUtilRead                    5.45                       # Data bus utilization in percentage for reads
system.mem_ctrls1.busUtilWrite                   0.83                       # Data bus utilization in percentage for writes
system.mem_ctrls1.avgRdQLen                      1.60                       # Average read queue length when enqueuing
system.mem_ctrls1.avgWrQLen                     13.14                       # Average write queue length when enqueuing
system.mem_ctrls1.readRowHits                   81508                       # Number of row buffer hits during reads
system.mem_ctrls1.writeRowHits                   4276                       # Number of row buffer hits during writes
system.mem_ctrls1.readRowHitRate                46.80                       # Row buffer hit rate for reads
system.mem_ctrls1.writeRowHitRate               16.19                       # Row buffer hit rate for writes
system.mem_ctrls1.avgGap                     79664.35                       # Average gap between requests
system.mem_ctrls1.pageHitRate                   42.77                       # Row buffer hit rate, read and write combined
system.mem_ctrls1_0.actEnergy               389722620                       # Energy for activate commands per rank (pJ)
system.mem_ctrls1_0.preEnergy               207131100                       # Energy for precharge commands per rank (pJ)
system.mem_ctrls1_0.readEnergy              603708420                       # Energy for read commands per rank (pJ)
system.mem_ctrls1_0.writeEnergy              64926360                       # Energy for write commands per rank (pJ)
system.mem_ctrls1_0.refreshEnergy        1224977520.000000                       # Energy for refresh commands per rank (pJ)
system.mem_ctrls1_0.actBackEnergy          1561552620                       # Energy for active background per rank (pJ)
system.mem_ctrls1_0.preBackEnergy            31225440                       # Energy for precharge background per rank (pJ)
system.mem_ctrls1_0.actPowerDownEnergy     5135347740                       # Energy for active power-down per rank (pJ)
system.mem_ctrls1_0.prePowerDownEnergy      251228640                       # Energy for precharge power-down per rank (pJ)
system.mem_ctrls1_0.selfRefreshEnergy       141780570                       # Energy for self refresh per rank (pJ)
system.mem_ctrls1_0.totalEnergy            9611726730                       # Total energy per rank (pJ)
system.mem_ctrls1_0.averagePower           601.483365                       # Core power per rank (mW)
system.mem_ctrls1_0.totalIdleTime         12471111250                       # Total Idle time Per DRAM Rank
system.mem_ctrls1_0.memoryStateTime::IDLE     15169000                       # Time in different power states
system.mem_ctrls1_0.memoryStateTime::REF    518300000                       # Time in different power states
system.mem_ctrls1_0.memoryStateTime::SREF    558017000                       # Time in different power states
system.mem_ctrls1_0.memoryStateTime::PRE_PDN    654189500                       # Time in different power states
system.mem_ctrls1_0.memoryStateTime::ACT   2972073750                       # Time in different power states
system.mem_ctrls1_0.memoryStateTime::ACT_PDN  11262287750                       # Time in different power states
system.mem_ctrls1_1.actEnergy               429699480                       # Energy for activate commands per rank (pJ)
system.mem_ctrls1_1.preEnergy               228375510                       # Energy for precharge commands per rank (pJ)
system.mem_ctrls1_1.readEnergy              639879660                       # Energy for read commands per rank (pJ)
system.mem_ctrls1_1.writeEnergy              72761580                       # Energy for write commands per rank (pJ)
system.mem_ctrls1_1.refreshEnergy        1248333840.000000                       # Energy for refresh commands per rank (pJ)
system.mem_ctrls1_1.actBackEnergy          1640409840                       # Energy for active background per rank (pJ)
system.mem_ctrls1_1.preBackEnergy            32253600                       # Energy for precharge background per rank (pJ)
system.mem_ctrls1_1.actPowerDownEnergy     5236623630                       # Energy for active power-down per rank (pJ)
system.mem_ctrls1_1.prePowerDownEnergy      197721600                       # Energy for precharge power-down per rank (pJ)
system.mem_ctrls1_1.selfRefreshEnergy        82504965                       # Energy for self refresh per rank (pJ)
system.mem_ctrls1_1.totalEnergy            9808635675                       # Total energy per rank (pJ)
system.mem_ctrls1_1.averagePower           613.805548                       # Core power per rank (mW)
system.mem_ctrls1_1.totalIdleTime         12298660500                       # Total Idle time Per DRAM Rank
system.mem_ctrls1_1.memoryStateTime::IDLE     16443500                       # Time in different power states
system.mem_ctrls1_1.memoryStateTime::REF    528204000                       # Time in different power states
system.mem_ctrls1_1.memoryStateTime::SREF    299768000                       # Time in different power states
system.mem_ctrls1_1.memoryStateTime::PRE_PDN    514872750                       # Time in different power states
system.mem_ctrls1_1.memoryStateTime::ACT   3136443500                       # Time in different power states
system.mem_ctrls1_1.memoryStateTime::ACT_PDN  11484305250                       # Time in different power states
system.mem_ctrls2.pwrStateResidencyTicks::UNDEFINED  15980037000                       # Cumulative time (in ticks) in various power states
system.mem_ctrls2.bytes_read::ruby.dir_cntrl2     11163584                       # Number of bytes read from this memory
system.mem_ctrls2.bytes_read::total          11163584                       # Number of bytes read from this memory
system.mem_ctrls2.bytes_written::ruby.dir_cntrl2      1695424                       # Number of bytes written to this memory
system.mem_ctrls2.bytes_written::total        1695424                       # Number of bytes written to this memory
system.mem_ctrls2.num_reads::ruby.dir_cntrl2       174431                       # Number of read requests responded to by this memory
system.mem_ctrls2.num_reads::total             174431                       # Number of read requests responded to by this memory
system.mem_ctrls2.num_writes::ruby.dir_cntrl2        26491                       # Number of write requests responded to by this memory
system.mem_ctrls2.num_writes::total             26491                       # Number of write requests responded to by this memory
system.mem_ctrls2.bw_read::ruby.dir_cntrl2    698595629                       # Total read bandwidth from this memory (bytes/s)
system.mem_ctrls2.bw_read::total            698595629                       # Total read bandwidth from this memory (bytes/s)
system.mem_ctrls2.bw_write::ruby.dir_cntrl2    106096375                       # Write bandwidth from this memory (bytes/s)
system.mem_ctrls2.bw_write::total           106096375                       # Write bandwidth from this memory (bytes/s)
system.mem_ctrls2.bw_total::ruby.dir_cntrl2    804692004                       # Total bandwidth to/from this memory (bytes/s)
system.mem_ctrls2.bw_total::total           804692004                       # Total bandwidth to/from this memory (bytes/s)
system.mem_ctrls2.readReqs                     174431                       # Number of read requests accepted
system.mem_ctrls2.avgNetLat                      0.00                       # Average network latency to DRAM controller
system.mem_ctrls2.writeReqs                     26491                       # Number of write requests accepted
system.mem_ctrls2.readBursts                   174431                       # Number of DRAM read bursts, including those serviced by the write queue
system.mem_ctrls2.writeBursts                   26491                       # Number of DRAM write bursts, including those merged in the write queue
system.mem_ctrls2.bytesReadDRAM              11163264                       # Total number of bytes read from DRAM
system.mem_ctrls2.bytesReadWrQ                    320                       # Total number of bytes read from write queue
system.mem_ctrls2.bytesWritten                1693888                       # Total number of bytes written to DRAM
system.mem_ctrls2.bytesReadSys               11163584                       # Total read bytes from the system interface side
system.mem_ctrls2.bytesWrittenSys             1695424                       # Total written bytes from the system interface side
system.mem_ctrls2.servicedByWrQ                     5                       # Number of DRAM read bursts serviced by the write queue
system.mem_ctrls2.mergedWrBursts                    0                       # Number of DRAM write bursts merged with an existing one
system.mem_ctrls2.neitherReadNorWriteReqs            0                       # Number of requests that are neither read nor write
system.mem_ctrls2.perBankRdBursts::0            11045                       # Per bank write bursts
system.mem_ctrls2.perBankRdBursts::1            10519                       # Per bank write bursts
system.mem_ctrls2.perBankRdBursts::2            10676                       # Per bank write bursts
system.mem_ctrls2.perBankRdBursts::3            10337                       # Per bank write bursts
system.mem_ctrls2.perBankRdBursts::4            10261                       # Per bank write bursts
system.mem_ctrls2.perBankRdBursts::5            10178                       # Per bank write bursts
system.mem_ctrls2.perBankRdBursts::6            10740                       # Per bank write bursts
system.mem_ctrls2.perBankRdBursts::7            10802                       # Per bank write bursts
system.mem_ctrls2.perBankRdBursts::8            10760                       # Per bank write bursts
system.mem_ctrls2.perBankRdBursts::9            10942                       # Per bank write bursts
system.mem_ctrls2.perBankRdBursts::10           11282                       # Per bank write bursts
system.mem_ctrls2.perBankRdBursts::11           11340                       # Per bank write bursts
system.mem_ctrls2.perBankRdBursts::12           11892                       # Per bank write bursts
system.mem_ctrls2.perBankRdBursts::13           11887                       # Per bank write bursts
system.mem_ctrls2.perBankRdBursts::14           10973                       # Per bank write bursts
system.mem_ctrls2.perBankRdBursts::15           10792                       # Per bank write bursts
system.mem_ctrls2.perBankWrBursts::0             1651                       # Per bank write bursts
system.mem_ctrls2.perBankWrBursts::1             1499                       # Per bank write bursts
system.mem_ctrls2.perBankWrBursts::2             1653                       # Per bank write bursts
system.mem_ctrls2.perBankWrBursts::3             1530                       # Per bank write bursts
system.mem_ctrls2.perBankWrBursts::4             1507                       # Per bank write bursts
system.mem_ctrls2.perBankWrBursts::5             1401                       # Per bank write bursts
system.mem_ctrls2.perBankWrBursts::6             1643                       # Per bank write bursts
system.mem_ctrls2.perBankWrBursts::7             1597                       # Per bank write bursts
system.mem_ctrls2.perBankWrBursts::8             1749                       # Per bank write bursts
system.mem_ctrls2.perBankWrBursts::9             1732                       # Per bank write bursts
system.mem_ctrls2.perBankWrBursts::10            1769                       # Per bank write bursts
system.mem_ctrls2.perBankWrBursts::11            1751                       # Per bank write bursts
system.mem_ctrls2.perBankWrBursts::12            2031                       # Per bank write bursts
system.mem_ctrls2.perBankWrBursts::13            1845                       # Per bank write bursts
system.mem_ctrls2.perBankWrBursts::14            1559                       # Per bank write bursts
system.mem_ctrls2.perBankWrBursts::15            1550                       # Per bank write bursts
system.mem_ctrls2.numRdRetry                        0                       # Number of times read queue was full causing retry
system.mem_ctrls2.numWrRetry                        0                       # Number of times write queue was full causing retry
system.mem_ctrls2.totGap                  15978969500                       # Total gap between requests
system.mem_ctrls2.readPktSize::0                    0                       # Read request sizes (log2)
system.mem_ctrls2.readPktSize::1                    0                       # Read request sizes (log2)
system.mem_ctrls2.readPktSize::2                    0                       # Read request sizes (log2)
system.mem_ctrls2.readPktSize::3                    0                       # Read request sizes (log2)
system.mem_ctrls2.readPktSize::4                    0                       # Read request sizes (log2)
system.mem_ctrls2.readPktSize::5                    0                       # Read request sizes (log2)
system.mem_ctrls2.readPktSize::6               174431                       # Read request sizes (log2)
system.mem_ctrls2.writePktSize::0                   0                       # Write request sizes (log2)
system.mem_ctrls2.writePktSize::1                   0                       # Write request sizes (log2)
system.mem_ctrls2.writePktSize::2                   0                       # Write request sizes (log2)
system.mem_ctrls2.writePktSize::3                   0                       # Write request sizes (log2)
system.mem_ctrls2.writePktSize::4                   0                       # Write request sizes (log2)
system.mem_ctrls2.writePktSize::5                   0                       # Write request sizes (log2)
system.mem_ctrls2.writePktSize::6               26491                       # Write request sizes (log2)
system.mem_ctrls2.rdQLenPdf::0                  83793                       # What read queue length does an incoming req see
system.mem_ctrls2.rdQLenPdf::1                  47336                       # What read queue length does an incoming req see
system.mem_ctrls2.rdQLenPdf::2                  24088                       # What read queue length does an incoming req see
system.mem_ctrls2.rdQLenPdf::3                  11439                       # What read queue length does an incoming req see
system.mem_ctrls2.rdQLenPdf::4                   4915                       # What read queue length does an incoming req see
system.mem_ctrls2.rdQLenPdf::5                   1971                       # What read queue length does an incoming req see
system.mem_ctrls2.rdQLenPdf::6                    644                       # What read queue length does an incoming req see
system.mem_ctrls2.rdQLenPdf::7                    186                       # What read queue length does an incoming req see
system.mem_ctrls2.rdQLenPdf::8                     49                       # What read queue length does an incoming req see
system.mem_ctrls2.rdQLenPdf::9                      5                       # What read queue length does an incoming req see
system.mem_ctrls2.rdQLenPdf::10                     0                       # What read queue length does an incoming req see
system.mem_ctrls2.rdQLenPdf::11                     0                       # What read queue length does an incoming req see
system.mem_ctrls2.rdQLenPdf::12                     0                       # What read queue length does an incoming req see
system.mem_ctrls2.rdQLenPdf::13                     0                       # What read queue length does an incoming req see
system.mem_ctrls2.rdQLenPdf::14                     0                       # What read queue length does an incoming req see
system.mem_ctrls2.rdQLenPdf::15                     0                       # What read queue length does an incoming req see
system.mem_ctrls2.rdQLenPdf::16                     0                       # What read queue length does an incoming req see
system.mem_ctrls2.rdQLenPdf::17                     0                       # What read queue length does an incoming req see
system.mem_ctrls2.rdQLenPdf::18                     0                       # What read queue length does an incoming req see
system.mem_ctrls2.rdQLenPdf::19                     0                       # What read queue length does an incoming req see
system.mem_ctrls2.rdQLenPdf::20                     0                       # What read queue length does an incoming req see
system.mem_ctrls2.rdQLenPdf::21                     0                       # What read queue length does an incoming req see
system.mem_ctrls2.rdQLenPdf::22                     0                       # What read queue length does an incoming req see
system.mem_ctrls2.rdQLenPdf::23                     0                       # What read queue length does an incoming req see
system.mem_ctrls2.rdQLenPdf::24                     0                       # What read queue length does an incoming req see
system.mem_ctrls2.rdQLenPdf::25                     0                       # What read queue length does an incoming req see
system.mem_ctrls2.rdQLenPdf::26                     0                       # What read queue length does an incoming req see
system.mem_ctrls2.rdQLenPdf::27                     0                       # What read queue length does an incoming req see
system.mem_ctrls2.rdQLenPdf::28                     0                       # What read queue length does an incoming req see
system.mem_ctrls2.rdQLenPdf::29                     0                       # What read queue length does an incoming req see
system.mem_ctrls2.rdQLenPdf::30                     0                       # What read queue length does an incoming req see
system.mem_ctrls2.rdQLenPdf::31                     0                       # What read queue length does an incoming req see
system.mem_ctrls2.wrQLenPdf::0                      1                       # What write queue length does an incoming req see
system.mem_ctrls2.wrQLenPdf::1                      1                       # What write queue length does an incoming req see
system.mem_ctrls2.wrQLenPdf::2                      1                       # What write queue length does an incoming req see
system.mem_ctrls2.wrQLenPdf::3                      1                       # What write queue length does an incoming req see
system.mem_ctrls2.wrQLenPdf::4                      1                       # What write queue length does an incoming req see
system.mem_ctrls2.wrQLenPdf::5                      1                       # What write queue length does an incoming req see
system.mem_ctrls2.wrQLenPdf::6                      1                       # What write queue length does an incoming req see
system.mem_ctrls2.wrQLenPdf::7                      1                       # What write queue length does an incoming req see
system.mem_ctrls2.wrQLenPdf::8                      1                       # What write queue length does an incoming req see
system.mem_ctrls2.wrQLenPdf::9                      1                       # What write queue length does an incoming req see
system.mem_ctrls2.wrQLenPdf::10                     1                       # What write queue length does an incoming req see
system.mem_ctrls2.wrQLenPdf::11                     1                       # What write queue length does an incoming req see
system.mem_ctrls2.wrQLenPdf::12                     1                       # What write queue length does an incoming req see
system.mem_ctrls2.wrQLenPdf::13                     1                       # What write queue length does an incoming req see
system.mem_ctrls2.wrQLenPdf::14                     1                       # What write queue length does an incoming req see
system.mem_ctrls2.wrQLenPdf::15                   339                       # What write queue length does an incoming req see
system.mem_ctrls2.wrQLenPdf::16                   421                       # What write queue length does an incoming req see
system.mem_ctrls2.wrQLenPdf::17                   924                       # What write queue length does an incoming req see
system.mem_ctrls2.wrQLenPdf::18                  1401                       # What write queue length does an incoming req see
system.mem_ctrls2.wrQLenPdf::19                  1610                       # What write queue length does an incoming req see
system.mem_ctrls2.wrQLenPdf::20                  1678                       # What write queue length does an incoming req see
system.mem_ctrls2.wrQLenPdf::21                  1680                       # What write queue length does an incoming req see
[...]
system.ruby.L2Cache_Controller.M.L1_GETS::total       148557                      
system.ruby.L2Cache_Controller.M.L1_GETX |        1371      6.00%      6.00% |        1466      6.42%     12.42% |        1485      6.50%     18.92% |        1465      6.41%     25.33% |        1396      6.11%     31.45% |        1332      5.83%     37.28% |        1319      5.77%     43.05% |        1463      6.40%     49.46% |        1363      5.97%     55.42% |        1403      6.14%     61.57% |        1383      6.05%     67.62% |        1365      5.98%     73.60% |        1945      8.52%     82.11% |        1268      5.55%     87.66% |        1390      6.09%     93.75% |        1428      6.25%    100.00%
system.ruby.L2Cache_Controller.M.L1_GETX::total        22842                      
system.ruby.L2Cache_Controller.M.L2_Replacement |        6678      6.33%      6.33% |        6577      6.24%     12.57% |        6518      6.18%     18.76% |        6607      6.27%     25.02% |        6528      6.19%     31.22% |        6575      6.24%     37.45% |        6581      6.24%     43.69% |        6540      6.20%     49.90% |        6649      6.31%     56.21% |        6463      6.13%     62.34% |        6546      6.21%     68.55% |        6604      6.26%     74.81% |        6642      6.30%     81.11% |        6640      6.30%     87.41% |        6695      6.35%     93.76% |        6579      6.24%    100.00%
system.ruby.L2Cache_Controller.M.L2_Replacement::total       105422                      
system.ruby.L2Cache_Controller.M.L2_Replacement_clean |        3892      6.25%      6.25% |        3792      6.09%     12.35% |        3710      5.96%     18.31% |        3903      6.27%     24.58% |        3798      6.10%     30.68% |        3863      6.21%     36.89% |        3881      6.24%     43.13% |        3964      6.37%     49.50% |        3977      6.39%     55.89% |        3808      6.12%     62.00% |        3870      6.22%     68.22% |        3926      6.31%     74.53% |        3983      6.40%     80.93% |        3983      6.40%     87.33% |        3926      6.31%     93.64% |        3958      6.36%    100.00%
system.ruby.L2Cache_Controller.M.L2_Replacement_clean::total        62234                      
system.ruby.L2Cache_Controller.MT.L1_GETS |          70      3.99%      3.99% |          70      3.99%      7.98% |          98      5.59%     13.57% |          98      5.59%     19.16% |          98      5.59%     24.74% |         140      7.98%     32.73% |         140      7.98%     40.71% |         140      7.98%     48.69% |         136      7.75%     56.44% |         136      7.75%     64.20% |         136      7.75%     71.95% |         128      7.30%     79.25% |         112      6.39%     85.63% |         112      6.39%     92.02% |          70      3.99%     96.01% |          70      3.99%    100.00%
system.ruby.L2Cache_Controller.MT.L1_GETS::total         1754                      
system.ruby.L2Cache_Controller.MT.L1_GETX |           0      0.00%      0.00% |           0      0.00%      0.00% |           0      0.00%      0.00% |           0      0.00%      0.00% |           0      0.00%      0.00% |           0      0.00%      0.00% |           0      0.00%      0.00% |           0      0.00%      0.00% |           2     16.67%     16.67% |           2     16.67%     33.33% |           2     16.67%     50.00% |           6     50.00%    100.00% |           0      0.00%    100.00% |           0      0.00%    100.00% |           0      0.00%    100.00% |           0      0.00%    100.00%
system.ruby.L2Cache_Controller.MT.L1_GETX::total           12                      
system.ruby.L2Cache_Controller.MT.L1_PUTX |       51952      6.24%      6.24% |       52075      6.25%     12.49% |       51640      6.20%     18.69% |       52257      6.28%     24.97% |       51558      6.19%     31.16% |       51499      6.18%     37.34% |       51616      6.20%     43.54% |       52024      6.25%     49.79% |       52041      6.25%     56.04% |       51588      6.20%     62.23% |       51943      6.24%     68.47% |       52598      6.32%     74.79% |       53669      6.44%     81.23% |       52539      6.31%     87.54% |       52261      6.28%     93.82% |       51472      6.18%    100.00%
system.ruby.L2Cache_Controller.MT.L1_PUTX::total       832732                      
system.ruby.L2Cache_Controller.MT.L2_Replacement |          14      8.28%      8.28% |           9      5.33%     13.61% |          13      7.69%     21.30% |          12      7.10%     28.40% |          13      7.69%     36.09% |          13      7.69%     43.79% |          11      6.51%     50.30% |           9      5.33%     55.62% |          14      8.28%     63.91% |           7      4.14%     68.05% |           8      4.73%     72.78% |          13      7.69%     80.47% |          12      7.10%     87.57% |           9      5.33%     92.90% |           8      4.73%     97.63% |           4      2.37%    100.00%
system.ruby.L2Cache_Controller.MT.L2_Replacement::total          169                      
system.ruby.L2Cache_Controller.MT.L2_Replacement_clean |          35      8.24%      8.24% |          27      6.35%     14.59% |          15      3.53%     18.12% |          19      4.47%     22.59% |          25      5.88%     28.47% |          24      5.65%     34.12% |          27      6.35%     40.47% |          23      5.41%     45.88% |          25      5.88%     51.76% |          29      6.82%     58.59% |          30      7.06%     65.65% |          21      4.94%     70.59% |          33      7.76%     78.35% |          35      8.24%     86.59% |          31      7.29%     93.88% |          26      6.12%    100.00%
system.ruby.L2Cache_Controller.MT.L2_Replacement_clean::total          425                      
system.ruby.L2Cache_Controller.M_I.L1_GET_INSTR |           0      0.00%      0.00% |           1     20.00%     20.00% |           2     40.00%     60.00% |           1     20.00%     80.00% |           0      0.00%     80.00% |           1     20.00%    100.00% |           0      0.00%    100.00% |           0      0.00%    100.00% |           0      0.00%    100.00% |           0      0.00%    100.00% |           0      0.00%    100.00% |           0      0.00%    100.00% |           0      0.00%    100.00% |           0      0.00%    100.00% |           0      0.00%    100.00% |           0      0.00%    100.00%
system.ruby.L2Cache_Controller.M_I.L1_GET_INSTR::total            5                      
system.ruby.L2Cache_Controller.M_I.L1_GETS |           0      0.00%      0.00% |           0      0.00%      0.00% |           0      0.00%      0.00% |           0      0.00%      0.00% |           1    100.00%    100.00% |           0      0.00%    100.00% |           0      0.00%    100.00% |           0      0.00%    100.00% |           0      0.00%    100.00% |           0      0.00%    100.00% |           0      0.00%    100.00% |           0      0.00%    100.00% |           0      0.00%    100.00% |           0      0.00%    100.00% |           0      0.00%    100.00% |           0      0.00%    100.00%
system.ruby.L2Cache_Controller.M_I.L1_GETS::total            1                      
system.ruby.L2Cache_Controller.M_I.Mem_Ack |       11391      6.31%      6.31% |       11197      6.20%     12.51% |       11083      6.14%     18.65% |       11254      6.24%     24.89% |       11148      6.18%     31.07% |       11305      6.26%     37.33% |       11295      6.26%     43.59% |       11296      6.26%     49.85% |       11483      6.36%     56.21% |       10970      6.08%     62.29% |       11169      6.19%     68.47% |       11310      6.27%     74.74% |       11391      6.31%     81.05% |       11406      6.32%     87.37% |       11503      6.37%     93.74% |       11293      6.26%    100.00%
system.ruby.L2Cache_Controller.M_I.Mem_Ack::total       180494                      
system.ruby.L2Cache_Controller.MT_I.L1_GETS |           0      0.00%      0.00% |           0      0.00%      0.00% |           0      0.00%      0.00% |           0      0.00%      0.00% |           2    100.00%    100.00% |           0      0.00%    100.00% |           0      0.00%    100.00% |           0      0.00%    100.00% |           0      0.00%    100.00% |           0      0.00%    100.00% |           0      0.00%    100.00% |           0      0.00%    100.00% |           0      0.00%    100.00% |           0      0.00%    100.00% |           0      0.00%    100.00% |           0      0.00%    100.00%
system.ruby.L2Cache_Controller.MT_I.L1_GETS::total            2                      
system.ruby.L2Cache_Controller.MT_I.WB_Data |           3      4.69%      4.69% |           6      9.38%     14.06% |           6      9.38%     23.44% |           6      9.38%     32.81% |           5      7.81%     40.62% |           6      9.38%     50.00% |           5      7.81%     57.81% |           4      6.25%     64.06% |           4      6.25%     70.31% |           4      6.25%     76.56% |           2      3.12%     79.69% |           3      4.69%     84.38% |           4      6.25%     90.62% |           2      3.12%     93.75% |           1      1.56%     95.31% |           3      4.69%    100.00%
system.ruby.L2Cache_Controller.MT_I.WB_Data::total           64                      
system.ruby.L2Cache_Controller.MT_I.Ack_all |          11     10.48%     10.48% |           3      2.86%     13.33% |           7      6.67%     20.00% |           6      5.71%     25.71% |           8      7.62%     33.33% |           7      6.67%     40.00% |           6      5.71%     45.71% |           5      4.76%     50.48% |          10      9.52%     60.00% |           3      2.86%     62.86% |           6      5.71%     68.57% |          10      9.52%     78.10% |           8      7.62%     85.71% |           7      6.67%     92.38% |           7      6.67%     99.05% |           1      0.95%    100.00%
system.ruby.L2Cache_Controller.MT_I.Ack_all::total          105                      
system.ruby.L2Cache_Controller.MCT_I.WB_Data |          33      8.82%      8.82% |          25      6.68%     15.51% |          15      4.01%     19.52% |          16      4.28%     23.80% |          21      5.61%     29.41% |          21      5.61%     35.03% |          24      6.42%     41.44% |          18      4.81%     46.26% |          21      5.61%     51.87% |          24      6.42%     58.29% |          27      7.22%     65.51% |          17      4.55%     70.05% |          29      7.75%     77.81% |          30      8.02%     85.83% |          29      7.75%     93.58% |          24      6.42%    100.00%
system.ruby.L2Cache_Controller.MCT_I.WB_Data::total          374                      
system.ruby.L2Cache_Controller.MCT_I.Ack_all |           2      3.92%      3.92% |           2      3.92%      7.84% |           0      0.00%      7.84% |           3      5.88%     13.73% |           4      7.84%     21.57% |           3      5.88%     27.45% |           3      5.88%     33.33% |           5      9.80%     43.14% |           4      7.84%     50.98% |           5      9.80%     60.78% |           3      5.88%     66.67% |           4      7.84%     74.51% |           4      7.84%     82.35% |           5      9.80%     92.16% |           2      3.92%     96.08% |           2      3.92%    100.00%
system.ruby.L2Cache_Controller.MCT_I.Ack_all::total           51                      
system.ruby.L2Cache_Controller.I_I.Ack_all |         767      6.29%      6.29% |         791      6.49%     12.79% |         825      6.77%     19.56% |         711      5.83%     25.39% |         781      6.41%     31.80% |         824      6.76%     38.56% |         791      6.49%     45.05% |         756      6.20%     51.26% |         815      6.69%     57.94% |         661      5.42%     63.37% |         710      5.83%     69.19% |         744      6.11%     75.30% |         714      5.86%     81.16% |         737      6.05%     87.21% |         838      6.88%     94.08% |         721      5.92%    100.00%
system.ruby.L2Cache_Controller.I_I.Ack_all::total        12186                      
system.ruby.L2Cache_Controller.S_I.Ack   |           5      8.62%      8.62% |           1      1.72%     10.34% |           2      3.45%     13.79% |           2      3.45%     17.24% |           3      5.17%     22.41% |           6     10.34%     32.76% |           4      6.90%     39.66% |           4      6.90%     46.55% |           3      5.17%     51.72% |           2      3.45%     55.17% |           5      8.62%     63.79% |           2      3.45%     67.24% |           7     12.07%     79.31% |           2      3.45%     82.76% |           5      8.62%     91.38% |           5      8.62%    100.00%
system.ruby.L2Cache_Controller.S_I.Ack::total           58                      
system.ruby.L2Cache_Controller.S_I.Ack_all |           5      8.62%      8.62% |           1      1.72%     10.34% |           2      3.45%     13.79% |           2      3.45%     17.24% |           3      5.17%     22.41% |           6     10.34%     32.76% |           4      6.90%     39.66% |           4      6.90%     46.55% |           3      5.17%     51.72% |           2      3.45%     55.17% |           5      8.62%     63.79% |           2      3.45%     67.24% |           7     12.07%     79.31% |           2      3.45%     82.76% |           5      8.62%     91.38% |           5      8.62%    100.00%
system.ruby.L2Cache_Controller.S_I.Ack_all::total           58                      
system.ruby.L2Cache_Controller.ISS.Mem_Data |       29851      6.27%      6.27% |       29570      6.21%     12.49% |       29283      6.15%     18.64% |       29702      6.24%     24.88% |       29504      6.20%     31.08% |       29689      6.24%     37.32% |       29793      6.26%     43.58% |       29766      6.26%     49.84% |       29928      6.29%     56.13% |       29622      6.22%     62.35% |       29747      6.25%     68.60% |       29856      6.27%     74.88% |       30041      6.31%     81.19% |       29948      6.29%     87.48% |       29788      6.26%     93.74% |       29774      6.26%    100.00%
system.ruby.L2Cache_Controller.ISS.Mem_Data::total       475862                      
system.ruby.L2Cache_Controller.IS.Mem_Data |        1383      6.43%      6.43% |        1377      6.40%     12.83% |        1528      7.11%     19.94% |        1310      6.09%     26.03% |        1369      6.37%     32.40% |        1365      6.35%     38.75% |        1293      6.01%     44.76% |        1312      6.10%     50.86% |        1388      6.45%     57.31% |        1188      5.52%     62.84% |        1261      5.86%     68.70% |        1283      5.97%     74.67% |        1235      5.74%     80.41% |        1310      6.09%     86.50% |        1545      7.18%     93.69% |        1357      6.31%    100.00%
system.ruby.L2Cache_Controller.IS.Mem_Data::total        21504                      
system.ruby.L2Cache_Controller.IM.Mem_Data |       12490      6.23%      6.23% |       12571      6.27%     12.50% |       12610      6.29%     18.79% |       12584      6.28%     25.07% |       12571      6.27%     31.34% |       12555      6.26%     37.60% |       12550      6.26%     43.86% |       12554      6.26%     50.12% |       12512      6.24%     56.36% |       12476      6.22%     62.58% |       12518      6.24%     68.83% |       12485      6.23%     75.06% |       12475      6.22%     81.28% |       12508      6.24%     87.52% |       12515      6.24%     93.76% |       12512      6.24%    100.00%
system.ruby.L2Cache_Controller.IM.Mem_Data::total       200486                      
system.ruby.L2Cache_Controller.SS_MB.Exclusive_Unblock |          42      3.94%      3.94% |          42      3.94%      7.88% |          70      6.57%     14.45% |          56      5.25%     19.70% |          56      5.25%     24.95% |          84      7.88%     32.83% |          84      7.88%     40.71% |          84      7.88%     48.59% |          82      7.69%     56.29% |          82      7.69%     63.98% |          82      7.69%     71.67% |          78      7.32%     78.99% |          70      6.57%     85.55% |          70      6.57%     92.12% |          42      3.94%     96.06% |          42      3.94%    100.00%
system.ruby.L2Cache_Controller.SS_MB.Exclusive_Unblock::total         1066                      
system.ruby.L2Cache_Controller.MT_MB.Exclusive_Unblock |       52876      6.24%      6.24% |       52999      6.25%     12.49% |       52561      6.20%     18.69% |       53195      6.27%     24.96% |       52496      6.19%     31.16% |       52451      6.19%     37.34% |       52568      6.20%     43.54% |       52973      6.25%     49.79% |       52987      6.25%     56.04% |       52539      6.20%     62.24% |       52896      6.24%     68.48% |       53556      6.32%     74.80% |       54607      6.44%     81.24% |       53476      6.31%     87.55% |       53185      6.27%     93.82% |       52394      6.18%    100.00%
system.ruby.L2Cache_Controller.MT_MB.Exclusive_Unblock::total       847759                      
system.ruby.L2Cache_Controller.MT_IIB.WB_Data |          69      3.97%      3.97% |          70      4.03%      7.99% |          97      5.58%     13.57% |          97      5.58%     19.15% |          98      5.64%     24.78% |         139      7.99%     32.78% |         140      8.05%     40.83% |         138      7.94%     48.76% |         136      7.82%     56.58% |         136      7.82%     64.40% |         134      7.71%     72.11% |         128      7.36%     79.47% |         111      6.38%     85.85% |         107      6.15%     92.01% |          69      3.97%     95.97% |          70      4.03%    100.00%
system.ruby.L2Cache_Controller.MT_IIB.WB_Data::total         1739                      
system.ruby.L2Cache_Controller.MT_IIB.Unblock |           1      6.67%      6.67% |           0      0.00%      6.67% |           1      6.67%     13.33% |           1      6.67%     20.00% |           0      0.00%     20.00% |           1      6.67%     26.67% |           0      0.00%     26.67% |           2     13.33%     40.00% |           0      0.00%     40.00% |           0      0.00%     40.00% |           2     13.33%     53.33% |           0      0.00%     53.33% |           1      6.67%     60.00% |           5     33.33%     93.33% |           1      6.67%    100.00% |           0      0.00%    100.00%
system.ruby.L2Cache_Controller.MT_IIB.Unblock::total           15                      
system.ruby.L2Cache_Controller.MT_IB.WB_Data |           1      6.67%      6.67% |           0      0.00%      6.67% |           1      6.67%     13.33% |           1      6.67%     20.00% |           0      0.00%     20.00% |           1      6.67%     26.67% |           0      0.00%     26.67% |           2     13.33%     40.00% |           0      0.00%     40.00% |           0      0.00%     40.00% |           2     13.33%     53.33% |           0      0.00%     53.33% |           1      6.67%     60.00% |           5     33.33%     93.33% |           1      6.67%    100.00% |           0      0.00%    100.00%
system.ruby.L2Cache_Controller.MT_IB.WB_Data::total           15                      
system.ruby.L2Cache_Controller.MT_SB.Unblock |          69      3.97%      3.97% |          70      4.03%      7.99% |          97      5.58%     13.57% |          97      5.58%     19.15% |          98      5.64%     24.78% |         139      7.99%     32.78% |         140      8.05%     40.83% |         138      7.94%     48.76% |         136      7.82%     56.58% |         136      7.82%     64.40% |         134      7.71%     72.11% |         128      7.36%     79.47% |         111      6.38%     85.85% |         107      6.15%     92.01% |          69      3.97%     95.97% |          70      4.03%    100.00%
system.ruby.L2Cache_Controller.MT_SB.Unblock::total         1739                      

---------- End Simulation Statistics   ----------
