
---------- Begin Simulation Statistics ----------
sim_seconds                                  0.013356                       # Number of seconds simulated
sim_ticks                                 13356270000                       # Number of ticks simulated
final_tick                                13356270000                       # Number of ticks from beginning of simulation (restored from checkpoints and never reset)
sim_freq                                 1000000000000                       # Frequency of simulated ticks
host_inst_rate                                  35510                       # Simulator instruction rate (inst/s)
host_op_rate                                    62025                       # Simulator op (including micro ops) rate (op/s)
host_tick_rate                               11217897                       # Simulator tick rate (ticks/s)
host_mem_usage                                1756648                       # Number of bytes of host memory used
host_seconds                                  1190.62                       # Real time elapsed on the host
sim_insts                                    42279250                       # Number of instructions simulated
sim_ops                                      73848724                       # Number of ops (including micro ops) simulated
system.voltage_domain.voltage                       1                       # Voltage in Volts
system.clk_domain.clock                          1000                       # Clock period in ticks
system.mem_ctrls0.pwrStateResidencyTicks::UNDEFINED  13356270000                       # Cumulative time (in ticks) in various power states
system.mem_ctrls0.bytes_read::ruby.dir_cntrl0      8550720                       # Number of bytes read from this memory
system.mem_ctrls0.bytes_read::total           8550720                       # Number of bytes read from this memory
system.mem_ctrls0.bytes_written::ruby.dir_cntrl0      1287744                       # Number of bytes written to this memory
system.mem_ctrls0.bytes_written::total        1287744                       # Number of bytes written to this memory
system.mem_ctrls0.num_reads::ruby.dir_cntrl0       133605                       # Number of read requests responded to by this memory
system.mem_ctrls0.num_reads::total             133605                       # Number of read requests responded to by this memory
system.mem_ctrls0.num_writes::ruby.dir_cntrl0        20121                       # Number of write requests responded to by this memory
system.mem_ctrls0.num_writes::total             20121                       # Number of write requests responded to by this memory
system.mem_ctrls0.bw_read::ruby.dir_cntrl0    640202691                       # Total read bandwidth from this memory (bytes/s)
system.mem_ctrls0.bw_read::total            640202691                       # Total read bandwidth from this memory (bytes/s)
system.mem_ctrls0.bw_write::ruby.dir_cntrl0     96414942                       # Write bandwidth from this memory (bytes/s)
system.mem_ctrls0.bw_write::total            96414942                       # Write bandwidth from this memory (bytes/s)
system.mem_ctrls0.bw_total::ruby.dir_cntrl0    736617634                       # Total bandwidth to/from this memory (bytes/s)
system.mem_ctrls0.bw_total::total           736617634                       # Total bandwidth to/from this memory (bytes/s)
system.mem_ctrls0.readReqs                     133605                       # Number of read requests accepted
system.mem_ctrls0.avgNetLat                      0.00                       # Average network latency to DRAM controller
system.mem_ctrls0.writeReqs                     20121                       # Number of write requests accepted
system.mem_ctrls0.readBursts                   133605                       # Number of DRAM read bursts, including those serviced by the write queue
system.mem_ctrls0.writeBursts                   20121                       # Number of DRAM write bursts, including those merged in the write queue
system.mem_ctrls0.bytesReadDRAM               8550208                       # Total number of bytes read from DRAM
system.mem_ctrls0.bytesReadWrQ                    512                       # Total number of bytes read from write queue
system.mem_ctrls0.bytesWritten                1285824                       # Total number of bytes written to DRAM
system.mem_ctrls0.bytesReadSys                8550720                       # Total read bytes from the system interface side
system.mem_ctrls0.bytesWrittenSys             1287744                       # Total written bytes from the system interface side
system.mem_ctrls0.servicedByWrQ                     8                       # Number of DRAM read bursts serviced by the write queue
system.mem_ctrls0.mergedWrBursts                    0                       # Number of DRAM write bursts merged with an existing one
system.mem_ctrls0.neitherReadNorWriteReqs            0                       # Number of requests that are neither read nor write
system.mem_ctrls0.perBankRdBursts::0             8809                       # Per bank write bursts
system.mem_ctrls0.perBankRdBursts::1             8876                       # Per bank write bursts
system.mem_ctrls0.perBankRdBursts::2             8084                       # Per bank write bursts
system.mem_ctrls0.perBankRdBursts::3             8127                       # Per bank write bursts
system.mem_ctrls0.perBankRdBursts::4             8152                       # Per bank write bursts
system.mem_ctrls0.perBankRdBursts::5             8135                       # Per bank write bursts
system.mem_ctrls0.perBankRdBursts::6             7882                       # Per bank write bursts
system.mem_ctrls0.perBankRdBursts::7             7856                       # Per bank write bursts
system.mem_ctrls0.perBankRdBursts::8             8085                       # Per bank write bursts
system.mem_ctrls0.perBankRdBursts::9             8081                       # Per bank write bursts
system.mem_ctrls0.perBankRdBursts::10            8632                       # Per bank write bursts
system.mem_ctrls0.perBankRdBursts::11            8477                       # Per bank write bursts
system.mem_ctrls0.perBankRdBursts::12            8521                       # Per bank write bursts
system.mem_ctrls0.perBankRdBursts::13            8624                       # Per bank write bursts
system.mem_ctrls0.perBankRdBursts::14            8538                       # Per bank write bursts
system.mem_ctrls0.perBankRdBursts::15            8718                       # Per bank write bursts
system.mem_ctrls0.perBankWrBursts::0             1247                       # Per bank write bursts
system.mem_ctrls0.perBankWrBursts::1             1308                       # Per bank write bursts
system.mem_ctrls0.perBankWrBursts::2             1286                       # Per bank write bursts
system.mem_ctrls0.perBankWrBursts::3             1326                       # Per bank write bursts
system.mem_ctrls0.perBankWrBursts::4             1250                       # Per bank write bursts
system.mem_ctrls0.perBankWrBursts::5             1168                       # Per bank write bursts
system.mem_ctrls0.perBankWrBursts::6             1106                       # Per bank write bursts
system.mem_ctrls0.perBankWrBursts::7             1314                       # Per bank write bursts
system.mem_ctrls0.perBankWrBursts::8             1229                       # Per bank write bursts
system.mem_ctrls0.perBankWrBursts::9             1419                       # Per bank write bursts
system.mem_ctrls0.perBankWrBursts::10            1290                       # Per bank write bursts
system.mem_ctrls0.perBankWrBursts::11            1247                       # Per bank write bursts
system.mem_ctrls0.perBankWrBursts::12            1303                       # Per bank write bursts
system.mem_ctrls0.perBankWrBursts::13            1134                       # Per bank write bursts
system.mem_ctrls0.perBankWrBursts::14            1203                       # Per bank write bursts
system.mem_ctrls0.perBankWrBursts::15            1261                       # Per bank write bursts
system.mem_ctrls0.numRdRetry                        0                       # Number of times read queue was full causing retry
system.mem_ctrls0.numWrRetry                        0                       # Number of times write queue was full causing retry
system.mem_ctrls0.totGap                  13355308500                       # Total gap between requests
system.mem_ctrls0.readPktSize::0                    0                       # Read request sizes (log2)
system.mem_ctrls0.readPktSize::1                    0                       # Read request sizes (log2)
system.mem_ctrls0.readPktSize::2                    0                       # Read request sizes (log2)
system.mem_ctrls0.readPktSize::3                    0                       # Read request sizes (log2)
system.mem_ctrls0.readPktSize::4                    0                       # Read request sizes (log2)
system.mem_ctrls0.readPktSize::5                    0                       # Read request sizes (log2)
system.mem_ctrls0.readPktSize::6               133605                       # Read request sizes (log2)
system.mem_ctrls0.writePktSize::0                   0                       # Write request sizes (log2)
system.mem_ctrls0.writePktSize::1                   0                       # Write request sizes (log2)
system.mem_ctrls0.writePktSize::2                   0                       # Write request sizes (log2)
system.mem_ctrls0.writePktSize::3                   0                       # Write request sizes (log2)
system.mem_ctrls0.writePktSize::4                   0                       # Write request sizes (log2)
system.mem_ctrls0.writePktSize::5                   0                       # Write request sizes (log2)
system.mem_ctrls0.writePktSize::6               20121                       # Write request sizes (log2)
system.mem_ctrls0.rdQLenPdf::0                  64949                       # What read queue length does an incoming req see
system.mem_ctrls0.rdQLenPdf::1                  34659                       # What read queue length does an incoming req see
system.mem_ctrls0.rdQLenPdf::2                  17998                       # What read queue length does an incoming req see
system.mem_ctrls0.rdQLenPdf::3                   9075                       # What read queue length does an incoming req see
system.mem_ctrls0.rdQLenPdf::4                   4242                       # What read queue length does an incoming req see
system.mem_ctrls0.rdQLenPdf::5                   1772                       # What read queue length does an incoming req see
system.mem_ctrls0.rdQLenPdf::6                    642                       # What read queue length does an incoming req see
system.mem_ctrls0.rdQLenPdf::7                    194                       # What read queue length does an incoming req see
system.mem_ctrls0.rdQLenPdf::8                     49                       # What read queue length does an incoming req see
system.mem_ctrls0.rdQLenPdf::9                     12                       # What read queue length does an incoming req see
system.mem_ctrls0.rdQLenPdf::10                     4                       # What read queue length does an incoming req see
system.mem_ctrls0.rdQLenPdf::11                     1                       # What read queue length does an incoming req see
system.mem_ctrls0.rdQLenPdf::12                     0                       # What read queue length does an incoming req see
system.mem_ctrls0.rdQLenPdf::13                     0                       # What read queue length does an incoming req see
system.mem_ctrls0.rdQLenPdf::14                     0                       # What read queue length does an incoming req see
system.mem_ctrls0.rdQLenPdf::15                     0                       # What read queue length does an incoming req see
system.mem_ctrls0.rdQLenPdf::16                     0                       # What read queue length does an incoming req see
system.mem_ctrls0.rdQLenPdf::17                     0                       # What read queue length does an incoming req see
system.mem_ctrls0.rdQLenPdf::18                     0                       # What read queue length does an incoming req see
system.mem_ctrls0.rdQLenPdf::19                     0                       # What read queue length does an incoming req see
system.mem_ctrls0.rdQLenPdf::20                     0                       # What read queue length does an incoming req see
system.mem_ctrls0.rdQLenPdf::21                     0                       # What read queue length does an incoming req see
system.mem_ctrls0.rdQLenPdf::22                     0                       # What read queue length does an incoming req see
system.mem_ctrls0.rdQLenPdf::23                     0                       # What read queue length does an incoming req see
system.mem_ctrls0.rdQLenPdf::24                     0                       # What read queue length does an incoming req see
system.mem_ctrls0.rdQLenPdf::25                     0                       # What read queue length does an incoming req see
system.mem_ctrls0.rdQLenPdf::26                     0                       # What read queue length does an incoming req see
system.mem_ctrls0.rdQLenPdf::27                     0                       # What read queue length does an incoming req see
system.mem_ctrls0.rdQLenPdf::28                     0                       # What read queue length does an incoming req see
system.mem_ctrls0.rdQLenPdf::29                     0                       # What read queue length does an incoming req see
system.mem_ctrls0.rdQLenPdf::30                     0                       # What read queue length does an incoming req see
system.mem_ctrls0.rdQLenPdf::31                     0                       # What read queue length does an incoming req see
system.mem_ctrls0.wrQLenPdf::0                      1                       # What write queue length does an incoming req see
system.mem_ctrls0.wrQLenPdf::1                      1                       # What write queue length does an incoming req see
system.mem_ctrls0.wrQLenPdf::2                      1                       # What write queue length does an incoming req see
system.mem_ctrls0.wrQLenPdf::3                      1                       # What write queue length does an incoming req see
system.mem_ctrls0.wrQLenPdf::4                      1                       # What write queue length does an incoming req see
system.mem_ctrls0.wrQLenPdf::5                      1                       # What write queue length does an incoming req see
system.mem_ctrls0.wrQLenPdf::6                      1                       # What write queue length does an incoming req see
system.mem_ctrls0.wrQLenPdf::7                      1                       # What write queue length does an incoming req see
system.mem_ctrls0.wrQLenPdf::8                      1                       # What write queue length does an incoming req see
system.mem_ctrls0.wrQLenPdf::9                      1                       # What write queue length does an incoming req see
system.mem_ctrls0.wrQLenPdf::10                     1                       # What write queue length does an incoming req see
system.mem_ctrls0.wrQLenPdf::11                     1                       # What write queue length does an incoming req see
system.mem_ctrls0.wrQLenPdf::12                     1                       # What write queue length does an incoming req see
system.mem_ctrls0.wrQLenPdf::13                     1                       # What write queue length does an incoming req see
system.mem_ctrls0.wrQLenPdf::14                     1                       # What write queue length does an incoming req see
system.mem_ctrls0.wrQLenPdf::15                   463                       # What write queue length does an incoming req see
system.mem_ctrls0.wrQLenPdf::16                   505                       # What write queue length does an incoming req see
system.mem_ctrls0.wrQLenPdf::17                   856                       # What write queue length does an incoming req see
system.mem_ctrls0.wrQLenPdf::18                  1140                       # What write queue length does an incoming req see
system.mem_ctrls0.wrQLenPdf::19                  1226                       # What write queue length does an incoming req see
system.mem_ctrls0.wrQLenPdf::20                  1225                       # What write queue length does an incoming req see
system.mem_ctrls0.wrQLenPdf::21                  1233                       # What write queue length does an incoming req see
system.mem_ctrls0.wrQLenPdf::22                  1219                       # What write queue length does an incoming req see
system.mem_ctrls0.wrQLenPdf::23                  1231                       # What write queue length does an incoming req see
system.mem_ctrls0.wrQLenPdf::24                  1219                       # What write queue length does an incoming req see
system.mem_ctrls0.wrQLenPdf::25                  1223                       # What write queue length does an incoming req see
system.mem_ctrls0.wrQLenPdf::26                  1227                       # What write queue length does an incoming req see
system.mem_ctrls0.wrQLenPdf::27                  1230                       # What write queue length does an incoming req see
system.mem_ctrls0.wrQLenPdf::28                  1237                       # What write queue length does an incoming req see
system.mem_ctrls0.wrQLenPdf::29                  1222                       # What write queue length does an incoming req see
system.mem_ctrls0.wrQLenPdf::30                  1220                       # What write queue length does an incoming req see
system.mem_ctrls0.wrQLenPdf::31                  1198                       # What write queue length does an incoming req see
system.mem_ctrls0.wrQLenPdf::32                  1193                       # What write queue length does an incoming req see
system.mem_ctrls0.wrQLenPdf::33                    26                       # What write queue length does an incoming req see
system.mem_ctrls0.wrQLenPdf::34                     9                       # What write queue length does an incoming req see
system.mem_ctrls0.wrQLenPdf::35                     2                       # What write queue length does an incoming req see
system.mem_ctrls0.wrQLenPdf::36                     1                       # What write queue length does an incoming req see
system.mem_ctrls0.wrQLenPdf::37                     1                       # What write queue length does an incoming req see
system.mem_ctrls0.wrQLenPdf::38                     0                       # What write queue length does an incoming req see
system.mem_ctrls0.wrQLenPdf::39                     0                       # What write queue length does an incoming req see
system.mem_ctrls0.wrQLenPdf::40                     0                       # What write queue length does an incoming req see
system.mem_ctrls0.wrQLenPdf::41                     0                       # What write queue length does an incoming req see
system.mem_ctrls0.wrQLenPdf::42                     0                       # What write queue length does an incoming req see
system.mem_ctrls0.wrQLenPdf::43                     0                       # What write queue length does an incoming req see
system.mem_ctrls0.wrQLenPdf::44                     0                       # What write queue length does an incoming req see
system.mem_ctrls0.wrQLenPdf::45                     0                       # What write queue length does an incoming req see
system.mem_ctrls0.wrQLenPdf::46                     0                       # What write queue length does an incoming req see
system.mem_ctrls0.wrQLenPdf::47                     0                       # What write queue length does an incoming req see
system.mem_ctrls0.wrQLenPdf::48                     0                       # What write queue length does an incoming req see
system.mem_ctrls0.wrQLenPdf::49                     0                       # What write queue length does an incoming req see
system.mem_ctrls0.wrQLenPdf::50                     0                       # What write queue length does an incoming req see
system.mem_ctrls0.wrQLenPdf::51                     0                       # What write queue length does an incoming req see
system.mem_ctrls0.wrQLenPdf::52                     0                       # What write queue length does an incoming req see
system.mem_ctrls0.wrQLenPdf::53                     0                       # What write queue length does an incoming req see
system.mem_ctrls0.wrQLenPdf::54                     0                       # What write queue length does an incoming req see
system.mem_ctrls0.wrQLenPdf::55                     0                       # What write queue length does an incoming req see
system.mem_ctrls0.wrQLenPdf::56                     0                       # What write queue length does an incoming req see
system.mem_ctrls0.wrQLenPdf::57                     0                       # What write queue length does an incoming req see
system.mem_ctrls0.wrQLenPdf::58                     0                       # What write queue length does an incoming req see
system.mem_ctrls0.wrQLenPdf::59                     0                       # What write queue length does an incoming req see
system.mem_ctrls0.wrQLenPdf::60                     0                       # What write queue length does an incoming req see
system.mem_ctrls0.wrQLenPdf::61                     0                       # What write queue length does an incoming req see
system.mem_ctrls0.wrQLenPdf::62                     0                       # What write queue length does an incoming req see
system.mem_ctrls0.wrQLenPdf::63                     0                       # What write queue length does an incoming req see
system.mem_ctrls0.bytesPerActivate::samples        86697                       # Bytes accessed per row activation
system.mem_ctrls0.bytesPerActivate::mean   113.447801                       # Bytes accessed per row activation
system.mem_ctrls0.bytesPerActivate::gmean    87.829102                       # Bytes accessed per row activation
system.mem_ctrls0.bytesPerActivate::stdev   126.224223                       # Bytes accessed per row activation
system.mem_ctrls0.bytesPerActivate::0-127        62088     71.61%     71.61% # Bytes accessed per row activation
system.mem_ctrls0.bytesPerActivate::128-255        16657     19.21%     90.83% # Bytes accessed per row activation
system.mem_ctrls0.bytesPerActivate::256-383         3367      3.88%     94.71% # Bytes accessed per row activation
system.mem_ctrls0.bytesPerActivate::384-511         1733      2.00%     96.71% # Bytes accessed per row activation
system.mem_ctrls0.bytesPerActivate::512-639         1112      1.28%     97.99% # Bytes accessed per row activation
system.mem_ctrls0.bytesPerActivate::640-767         1121      1.29%     99.29% # Bytes accessed per row activation
system.mem_ctrls0.bytesPerActivate::768-895          142      0.16%     99.45% # Bytes accessed per row activation
system.mem_ctrls0.bytesPerActivate::896-1023           88      0.10%     99.55% # Bytes accessed per row activation
system.mem_ctrls0.bytesPerActivate::1024-1151          389      0.45%    100.00% # Bytes accessed per row activation
system.mem_ctrls0.bytesPerActivate::total        86697                       # Bytes accessed per row activation
system.mem_ctrls0.rdPerTurnAround::samples         1188                       # Reads before turning the bus around for writes
system.mem_ctrls0.rdPerTurnAround::mean    112.437710                       # Reads before turning the bus around for writes
system.mem_ctrls0.rdPerTurnAround::gmean    32.957820                       # Reads before turning the bus around for writes
system.mem_ctrls0.rdPerTurnAround::stdev  1944.754522                       # Reads before turning the bus around for writes
system.mem_ctrls0.rdPerTurnAround::0-4095         1187     99.92%     99.92% # Reads before turning the bus around for writes
system.mem_ctrls0.rdPerTurnAround::65536-69631            1      0.08%    100.00% # Reads before turning the bus around for writes
system.mem_ctrls0.rdPerTurnAround::total         1188                       # Reads before turning the bus around for writes
system.mem_ctrls0.wrPerTurnAround::samples         1188                       # Writes before turning the bus around for reads
system.mem_ctrls0.wrPerTurnAround::mean     16.911616                       # Writes before turning the bus around for reads
system.mem_ctrls0.wrPerTurnAround::gmean    16.875270                       # Writes before turning the bus around for reads
system.mem_ctrls0.wrPerTurnAround::stdev     1.127029                       # Writes before turning the bus around for reads
system.mem_ctrls0.wrPerTurnAround::16             677     56.99%     56.99% # Writes before turning the bus around for reads
system.mem_ctrls0.wrPerTurnAround::17              42      3.54%     60.52% # Writes before turning the bus around for reads
system.mem_ctrls0.wrPerTurnAround::18             386     32.49%     93.01% # Writes before turning the bus around for reads
system.mem_ctrls0.wrPerTurnAround::19              70      5.89%     98.91% # Writes before turning the bus around for reads
system.mem_ctrls0.wrPerTurnAround::20               9      0.76%     99.66% # Writes before turning the bus around for reads
system.mem_ctrls0.wrPerTurnAround::21               2      0.17%     99.83% # Writes before turning the bus around for reads
system.mem_ctrls0.wrPerTurnAround::22               1      0.08%     99.92% # Writes before turning the bus around for reads
system.mem_ctrls0.wrPerTurnAround::23               1      0.08%    100.00% # Writes before turning the bus around for reads
system.mem_ctrls0.wrPerTurnAround::total         1188                       # Writes before turning the bus around for reads
system.mem_ctrls0.totQLat                  3886545000                       # Total ticks spent queuing
system.mem_ctrls0.totMemAccLat             6391488750                       # Total ticks spent from burst creation until serviced by the DRAM
system.mem_ctrls0.totBusLat                 667985000                       # Total ticks spent in databus transfers
system.mem_ctrls0.avgQLat                    29091.56                       # Average queueing delay per DRAM burst
system.mem_ctrls0.avgBusLat                   5000.00                       # Average bus latency per DRAM burst
system.mem_ctrls0.avgMemAccLat               47841.56                       # Average memory access latency per DRAM burst
system.mem_ctrls0.avgRdBW                      640.16                       # Average DRAM read bandwidth in MiByte/s
system.mem_ctrls0.avgWrBW                       96.27                       # Average achieved write bandwidth in MiByte/s
system.mem_ctrls0.avgRdBWSys                   640.20                       # Average system read bandwidth in MiByte/s
system.mem_ctrls0.avgWrBWSys                    96.41                       # Average system write bandwidth in MiByte/s
system.mem_ctrls0.peakBW                     12800.00                       # Theoretical peak bandwidth in MiByte/s
system.mem_ctrls0.busUtil                        5.75                       # Data bus utilization in percentage
system.mem_ctrls0.busUtilRead                    5.00                       # Data bus utilization in percentage for reads
system.mem_ctrls0.busUtilWrite                   0.75                       # Data bus utilization in percentage for writes
system.mem_ctrls0.avgRdQLen                      1.56                       # Average read queue length when enqueuing
system.mem_ctrls0.avgWrQLen                     10.90                       # Average write queue length when enqueuing
system.mem_ctrls0.readRowHits                   61006                       # Number of row buffer hits during reads
system.mem_ctrls0.writeRowHits                   5982                       # Number of row buffer hits during writes
system.mem_ctrls0.readRowHitRate                45.66                       # Row buffer hit rate for reads
system.mem_ctrls0.writeRowHitRate               29.73                       # Row buffer hit rate for writes
system.mem_ctrls0.avgGap                     86877.36                       # Average gap between requests
system.mem_ctrls0.pageHitRate                   43.58                       # Row buffer hit rate, read and write combined
system.mem_ctrls0_0.actEnergy               302900220                       # Energy for activate commands per rank (pJ)
system.mem_ctrls0_0.preEnergy               160995285                       # Energy for precharge commands per rank (pJ)
system.mem_ctrls0_0.readEnergy              470675940                       # Energy for read commands per rank (pJ)
system.mem_ctrls0_0.writeEnergy              52226100                       # Energy for write commands per rank (pJ)
system.mem_ctrls0_0.refreshEnergy        1059024720.000000                       # Energy for refresh commands per rank (pJ)
system.mem_ctrls0_0.actBackEnergy          1350817350                       # Energy for active background per rank (pJ)
system.mem_ctrls0_0.preBackEnergy            25805280                       # Energy for precharge background per rank (pJ)
system.mem_ctrls0_0.actPowerDownEnergy     4335671940                       # Energy for active power-down per rank (pJ)
system.mem_ctrls0_0.prePowerDownEnergy      271116480                       # Energy for precharge power-down per rank (pJ)
system.mem_ctrls0_0.selfRefreshEnergy        40293360                       # Energy for self refresh per rank (pJ)
system.mem_ctrls0_0.totalEnergy            8069526675                       # Total energy per rank (pJ)
system.mem_ctrls0_0.averagePower           604.175168                       # Core power per rank (mW)
system.mem_ctrls0_0.totalIdleTime         10325666750                       # Total Idle time Per DRAM Rank
system.mem_ctrls0_0.memoryStateTime::IDLE     15237250                       # Time in different power states
system.mem_ctrls0_0.memoryStateTime::REF    448136000                       # Time in different power states
system.mem_ctrls0_0.memoryStateTime::SREF    112667250                       # Time in different power states
system.mem_ctrls0_0.memoryStateTime::PRE_PDN    705983000                       # Time in different power states
system.mem_ctrls0_0.memoryStateTime::ACT   2565609750                       # Time in different power states
system.mem_ctrls0_0.memoryStateTime::ACT_PDN   9508636750                       # Time in different power states
system.mem_ctrls0_1.actEnergy               316137780                       # Energy for activate commands per rank (pJ)
system.mem_ctrls0_1.preEnergy               168019830                       # Energy for precharge commands per rank (pJ)
system.mem_ctrls0_1.readEnergy              483206640                       # Energy for read commands per rank (pJ)
system.mem_ctrls0_1.writeEnergy              52648920                       # Energy for write commands per rank (pJ)
system.mem_ctrls0_1.refreshEnergy        1059639360.000000                       # Energy for refresh commands per rank (pJ)
system.mem_ctrls0_1.actBackEnergy          1416828480                       # Energy for active background per rank (pJ)
system.mem_ctrls0_1.preBackEnergy            24936960                       # Energy for precharge background per rank (pJ)
system.mem_ctrls0_1.actPowerDownEnergy     4341369660                       # Energy for active power-down per rank (pJ)
system.mem_ctrls0_1.prePowerDownEnergy      239802720                       # Energy for precharge power-down per rank (pJ)
system.mem_ctrls0_1.selfRefreshEnergy        17724705                       # Energy for self refresh per rank (pJ)
system.mem_ctrls0_1.totalEnergy            8120411535                       # Total energy per rank (pJ)
system.mem_ctrls0_1.averagePower           607.984979                       # Core power per rank (mW)
system.mem_ctrls0_1.totalIdleTime         10183670500                       # Total Idle time Per DRAM Rank
system.mem_ctrls0_1.memoryStateTime::IDLE     12778250                       # Time in different power states
system.mem_ctrls0_1.memoryStateTime::REF    448342000                       # Time in different power states
system.mem_ctrls0_1.memoryStateTime::SREF     39003750                       # Time in different power states
system.mem_ctrls0_1.memoryStateTime::PRE_PDN    624332500                       # Time in different power states
system.mem_ctrls0_1.memoryStateTime::ACT   2710606000                       # Time in different power states
system.mem_ctrls0_1.memoryStateTime::ACT_PDN   9521207500                       # Time in different power states
system.mem_ctrls1.pwrStateResidencyTicks::UNDEFINED  13356270000                       # Cumulative time (in ticks) in various power states
system.mem_ctrls1.bytes_read::ruby.dir_cntrl1      8625088                       # Number of bytes read from this memory
system.mem_ctrls1.bytes_read::total           8625088                       # Number of bytes read from this memory
system.mem_ctrls1.bytes_written::ruby.dir_cntrl1      1309440                       # Number of bytes written to this memory
system.mem_ctrls1.bytes_written::total        1309440                       # Number of bytes written to this memory
system.mem_ctrls1.num_reads::ruby.dir_cntrl1       134767                       # Number of read requests responded to by this memory
system.mem_ctrls1.num_reads::total             134767                       # Number of read requests responded to by this memory
system.mem_ctrls1.num_writes::ruby.dir_cntrl1        20460                       # Number of write requests responded to by this memory
system.mem_ctrls1.num_writes::total             20460                       # Number of write requests responded to by this memory
system.mem_ctrls1.bw_read::ruby.dir_cntrl1    645770713                       # Total read bandwidth from this memory (bytes/s)
system.mem_ctrls1.bw_read::total            645770713                       # Total read bandwidth from this memory (bytes/s)
system.mem_ctrls1.bw_write::ruby.dir_cntrl1     98039348                       # Write bandwidth from this memory (bytes/s)
system.mem_ctrls1.bw_write::total            98039348                       # Write bandwidth from this memory (bytes/s)
system.mem_ctrls1.bw_total::ruby.dir_cntrl1    743810061                       # Total bandwidth to/from this memory (bytes/s)
system.mem_ctrls1.bw_total::total           743810061                       # Total bandwidth to/from this memory (bytes/s)
system.mem_ctrls1.readReqs                     134767                       # Number of read requests accepted
system.mem_ctrls1.avgNetLat                      0.00                       # Average network latency to DRAM controller
system.mem_ctrls1.writeReqs                     20460                       # Number of write requests accepted
system.mem_ctrls1.readBursts                   134767                       # Number of DRAM read bursts, including those serviced by the write queue
system.mem_ctrls1.writeBursts                   20460                       # Number of DRAM write bursts, including those merged in the write queue
system.mem_ctrls1.bytesReadDRAM               8624000                       # Total number of bytes read from DRAM
system.mem_ctrls1.bytesReadWrQ                   1088                       # Total number of bytes read from write queue
system.mem_ctrls1.bytesWritten                1308160                       # Total number of bytes written to DRAM
system.mem_ctrls1.bytesReadSys                8625088                       # Total read bytes from the system interface side
system.mem_ctrls1.bytesWrittenSys             1309440                       # Total written bytes from the system interface side
system.mem_ctrls1.servicedByWrQ                    17                       # Number of DRAM read bursts serviced by the write queue
system.mem_ctrls1.mergedWrBursts                    0                       # Number of DRAM write bursts merged with an existing one
system.mem_ctrls1.neitherReadNorWriteReqs            0                       # Number of requests that are neither read nor write
system.mem_ctrls1.perBankRdBursts::0             8819                       # Per bank write bursts
system.mem_ctrls1.perBankRdBursts::1             8951                       # Per bank write bursts
system.mem_ctrls1.perBankRdBursts::2             8185                       # Per bank write bursts
system.mem_ctrls1.perBankRdBursts::3             8185                       # Per bank write bursts
system.mem_ctrls1.perBankRdBursts::4             8193                       # Per bank write bursts
system.mem_ctrls1.perBankRdBursts::5             8159                       # Per bank write bursts
system.mem_ctrls1.perBankRdBursts::6             7997                       # Per bank write bursts
system.mem_ctrls1.perBankRdBursts::7             7924                       # Per bank write bursts
system.mem_ctrls1.perBankRdBursts::8             8165                       # Per bank write bursts
system.mem_ctrls1.perBankRdBursts::9             8166                       # Per bank write bursts
system.mem_ctrls1.perBankRdBursts::10            8721                       # Per bank write bursts
system.mem_ctrls1.perBankRdBursts::11            8581                       # Per bank write bursts
system.mem_ctrls1.perBankRdBursts::12            8598                       # Per bank write bursts
system.mem_ctrls1.perBankRdBursts::13            8708                       # Per bank write bursts
system.mem_ctrls1.perBankRdBursts::14            8586                       # Per bank write bursts
system.mem_ctrls1.perBankRdBursts::15            8812                       # Per bank write bursts
system.mem_ctrls1.perBankWrBursts::0             1212                       # Per bank write bursts
system.mem_ctrls1.perBankWrBursts::1             1375                       # Per bank write bursts
system.mem_ctrls1.perBankWrBursts::2             1306                       # Per bank write bursts
system.mem_ctrls1.perBankWrBursts::3             1347                       # Per bank write bursts
system.mem_ctrls1.perBankWrBursts::4             1268                       # Per bank write bursts
system.mem_ctrls1.perBankWrBursts::5             1154                       # Per bank write bursts
system.mem_ctrls1.perBankWrBursts::6             1136                       # Per bank write bursts
system.mem_ctrls1.perBankWrBursts::7             1324                       # Per bank write bursts
system.mem_ctrls1.perBankWrBursts::8             1266                       # Per bank write bursts
system.mem_ctrls1.perBankWrBursts::9             1433                       # Per bank write bursts
system.mem_ctrls1.perBankWrBursts::10            1307                       # Per bank write bursts
system.mem_ctrls1.perBankWrBursts::11            1286                       # Per bank write bursts
system.mem_ctrls1.perBankWrBursts::12            1348                       # Per bank write bursts
system.mem_ctrls1.perBankWrBursts::13            1173                       # Per bank write bursts
system.mem_ctrls1.perBankWrBursts::14            1194                       # Per bank write bursts
system.mem_ctrls1.perBankWrBursts::15            1311                       # Per bank write bursts
system.mem_ctrls1.numRdRetry                        0                       # Number of times read queue was full causing retry
system.mem_ctrls1.numWrRetry                        0                       # Number of times write queue was full causing retry
system.mem_ctrls1.totGap                  13355851000                       # Total gap between requests
system.mem_ctrls1.readPktSize::0                    0                       # Read request sizes (log2)
system.mem_ctrls1.readPktSize::1                    0                       # Read request sizes (log2)
system.mem_ctrls1.readPktSize::2                    0                       # Read request sizes (log2)
system.mem_ctrls1.readPktSize::3                    0                       # Read request sizes (log2)
system.mem_ctrls1.readPktSize::4                    0                       # Read request sizes (log2)
system.mem_ctrls1.readPktSize::5                    0                       # Read request sizes (log2)
system.mem_ctrls1.readPktSize::6               134767                       # Read request sizes (log2)
system.mem_ctrls1.writePktSize::0                   0                       # Write request sizes (log2)
system.mem_ctrls1.writePktSize::1                   0                       # Write request sizes (log2)
system.mem_ctrls1.writePktSize::2                   0                       # Write request sizes (log2)
system.mem_ctrls1.writePktSize::3                   0                       # Write request sizes (log2)
system.mem_ctrls1.writePktSize::4                   0                       # Write request sizes (log2)
system.mem_ctrls1.writePktSize::5                   0                       # Write request sizes (log2)
system.mem_ctrls1.writePktSize::6               20460                       # Write request sizes (log2)
system.mem_ctrls1.rdQLenPdf::0                  65276                       # What read queue length does an incoming req see
system.mem_ctrls1.rdQLenPdf::1                  35059                       # What read queue length does an incoming req see
system.mem_ctrls1.rdQLenPdf::2                  18253                       # What read queue length does an incoming req see
system.mem_ctrls1.rdQLenPdf::3                   9218                       # What read queue length does an incoming req see
system.mem_ctrls1.rdQLenPdf::4                   4344                       # What read queue length does an incoming req see
system.mem_ctrls1.rdQLenPdf::5                   1746                       # What read queue length does an incoming req see
system.mem_ctrls1.rdQLenPdf::6                    598                       # What read queue length does an incoming req see
system.mem_ctrls1.rdQLenPdf::7                    195                       # What read queue length does an incoming req see
system.mem_ctrls1.rdQLenPdf::8                     51                       # What read queue length does an incoming req see
system.mem_ctrls1.rdQLenPdf::9                     10                       # What read queue length does an incoming req see
system.mem_ctrls1.rdQLenPdf::10                     0                       # What read queue length does an incoming req see
system.mem_ctrls1.rdQLenPdf::11                     0                       # What read queue length does an incoming req see
system.mem_ctrls1.rdQLenPdf::12                     0                       # What read queue length does an incoming req see
system.mem_ctrls1.rdQLenPdf::13                     0                       # What read queue length does an incoming req see
system.mem_ctrls1.rdQLenPdf::14                     0                       # What read queue length does an incoming req see
system.mem_ctrls1.rdQLenPdf::15                     0                       # What read queue length does an incoming req see
system.mem_ctrls1.rdQLenPdf::16                     0                       # What read queue length does an incoming req see
system.mem_ctrls1.rdQLenPdf::17                     0                       # What read queue length does an incoming req see
system.mem_ctrls1.rdQLenPdf::18                     0                       # What read queue length does an incoming req see
system.mem_ctrls1.rdQLenPdf::19                     0                       # What read queue length does an incoming req see
system.mem_ctrls1.rdQLenPdf::20                     0                       # What read queue length does an incoming req see
system.mem_ctrls1.rdQLenPdf::21                     0                       # What read queue length does an incoming req see
system.mem_ctrls1.rdQLenPdf::22                     0                       # What read queue length does an incoming req see
system.mem_ctrls1.rdQLenPdf::23                     0                       # What read queue length does an incoming req see
system.mem_ctrls1.rdQLenPdf::24                     0                       # What read queue length does an incoming req see
system.mem_ctrls1.rdQLenPdf::25                     0                       # What read queue length does an incoming req see
system.mem_ctrls1.rdQLenPdf::26                     0                       # What read queue length does an incoming req see
system.mem_ctrls1.rdQLenPdf::27                     0                       # What read queue length does an incoming req see
system.mem_ctrls1.rdQLenPdf::28                     0                       # What read queue length does an incoming req see
system.mem_ctrls1.rdQLenPdf::29                     0                       # What read queue length does an incoming req see
system.mem_ctrls1.rdQLenPdf::30                     0                       # What read queue length does an incoming req see
system.mem_ctrls1.rdQLenPdf::31                     0                       # What read queue length does an incoming req see
system.mem_ctrls1.wrQLenPdf::0                      1                       # What write queue length does an incoming req see
system.mem_ctrls1.wrQLenPdf::1                      1                       # What write queue length does an incoming req see
system.mem_ctrls1.wrQLenPdf::2                      1                       # What write queue length does an incoming req see
system.mem_ctrls1.wrQLenPdf::3                      1                       # What write queue length does an incoming req see
system.mem_ctrls1.wrQLenPdf::4                      1                       # What write queue length does an incoming req see
system.mem_ctrls1.wrQLenPdf::5                      1                       # What write queue length does an incoming req see
system.mem_ctrls1.wrQLenPdf::6                      1                       # What write queue length does an incoming req see
system.mem_ctrls1.wrQLenPdf::7                      1                       # What write queue length does an incoming req see
system.mem_ctrls1.wrQLenPdf::8                      1                       # What write queue length does an incoming req see
system.mem_ctrls1.wrQLenPdf::9                      1                       # What write queue length does an incoming req see
system.mem_ctrls1.wrQLenPdf::10                     1                       # What write queue length does an incoming req see
system.mem_ctrls1.wrQLenPdf::11                     1                       # What write queue length does an incoming req see
system.mem_ctrls1.wrQLenPdf::12                     1                       # What write queue length does an incoming req see
system.mem_ctrls1.wrQLenPdf::13                     1                       # What write queue length does an incoming req see
system.mem_ctrls1.wrQLenPdf::14                     1                       # What write queue length does an incoming req see
system.mem_ctrls1.wrQLenPdf::15                   460                       # What write queue length does an incoming req see
system.mem_ctrls1.wrQLenPdf::16                   518                       # What write queue length does an incoming req see
system.mem_ctrls1.wrQLenPdf::17                   876                       # What write queue length does an incoming req see
system.mem_ctrls1.wrQLenPdf::18                  1158                       # What write queue length does an incoming req see
system.mem_ctrls1.wrQLenPdf::19                  1240                       # What write queue length does an incoming req see
system.mem_ctrls1.wrQLenPdf::20                  1250                       # What write queue length does an incoming req see
system.mem_ctrls1.wrQLenPdf::21                  1251                       # What write queue length does an incoming req see
system.mem_ctrls1.wrQLenPdf::22                  1247                       # What write queue length does an incoming req see
system.mem_ctrls1.wrQLenPdf::23                  1254                       # What write queue length does an incoming req see
system.mem_ctrls1.wrQLenPdf::24                  1241                       # What write queue length does an incoming req see
system.mem_ctrls1.wrQLenPdf::25                  1244                       # What write queue length does an incoming req see
system.mem_ctrls1.wrQLenPdf::26                  1252                       # What write queue length does an incoming req see
system.mem_ctrls1.wrQLenPdf::27                  1250                       # What write queue length does an incoming req see
system.mem_ctrls1.wrQLenPdf::28                  1245                       # What write queue length does an incoming req see
system.mem_ctrls1.wrQLenPdf::29                  1257                       # What write queue length does an incoming req see
system.mem_ctrls1.wrQLenPdf::30                  1232                       # What write queue length does an incoming req see
system.mem_ctrls1.wrQLenPdf::31                  1215                       # What write queue length does an incoming req see
system.mem_ctrls1.wrQLenPdf::32                  1215                       # What write queue length does an incoming req see
system.mem_ctrls1.wrQLenPdf::33                    29                       # What write queue length does an incoming req see
system.mem_ctrls1.wrQLenPdf::34                     6                       # What write queue length does an incoming req see
system.mem_ctrls1.wrQLenPdf::35                     3                       # What write queue length does an incoming req see
system.mem_ctrls1.wrQLenPdf::36                     1                       # What write queue length does an incoming req see
system.mem_ctrls1.wrQLenPdf::37                     1                       # What write queue length does an incoming req see
system.mem_ctrls1.wrQLenPdf::38                     0                       # What write queue length does an incoming req see
system.mem_ctrls1.wrQLenPdf::39                     0                       # What write queue length does an incoming req see
system.mem_ctrls1.wrQLenPdf::40                     0                       # What write queue length does an incoming req see
system.mem_ctrls1.wrQLenPdf::41                     0                       # What write queue length does an incoming req see
system.mem_ctrls1.wrQLenPdf::42                     0                       # What write queue length does an incoming req see
system.mem_ctrls1.wrQLenPdf::43                     0                       # What write queue length does an incoming req see
system.mem_ctrls1.wrQLenPdf::44                     0                       # What write queue length does an incoming req see
system.mem_ctrls1.wrQLenPdf::45                     0                       # What write queue length does an incoming req see
system.mem_ctrls1.wrQLenPdf::46                     0                       # What write queue length does an incoming req see
system.mem_ctrls1.wrQLenPdf::47                     0                       # What write queue length does an incoming req see
system.mem_ctrls1.wrQLenPdf::48                     0                       # What write queue length does an incoming req see
system.mem_ctrls1.wrQLenPdf::49                     0                       # What write queue length does an incoming req see
system.mem_ctrls1.wrQLenPdf::50                     0                       # What write queue length does an incoming req see
system.mem_ctrls1.wrQLenPdf::51                     0                       # What write queue length does an incoming req see
system.mem_ctrls1.wrQLenPdf::52                     0                       # What write queue length does an incoming req see
system.mem_ctrls1.wrQLenPdf::53                     0                       # What write queue length does an incoming req see
system.mem_ctrls1.wrQLenPdf::54                     0                       # What write queue length does an incoming req see
system.mem_ctrls1.wrQLenPdf::55                     0                       # What write queue length does an incoming req see
system.mem_ctrls1.wrQLenPdf::56                     0                       # What write queue length does an incoming req see
system.mem_ctrls1.wrQLenPdf::57                     0                       # What write queue length does an incoming req see
system.mem_ctrls1.wrQLenPdf::58                     0                       # What write queue length does an incoming req see
system.mem_ctrls1.wrQLenPdf::59                     0                       # What write queue length does an incoming req see
system.mem_ctrls1.wrQLenPdf::60                     0                       # What write queue length does an incoming req see
system.mem_ctrls1.wrQLenPdf::61                     0                       # What write queue length does an incoming req see
system.mem_ctrls1.wrQLenPdf::62                     0                       # What write queue length does an incoming req see
system.mem_ctrls1.wrQLenPdf::63                     0                       # What write queue length does an incoming req see
system.mem_ctrls1.bytesPerActivate::samples        88527                       # Bytes accessed per row activation
system.mem_ctrls1.bytesPerActivate::mean   112.190676                       # Bytes accessed per row activation
system.mem_ctrls1.bytesPerActivate::gmean    87.224790                       # Bytes accessed per row activation
system.mem_ctrls1.bytesPerActivate::stdev   124.581447                       # Bytes accessed per row activation
system.mem_ctrls1.bytesPerActivate::0-127        63882     72.16%     72.16% # Bytes accessed per row activation
system.mem_ctrls1.bytesPerActivate::128-255        16754     18.93%     91.09% # Bytes accessed per row activation
system.mem_ctrls1.bytesPerActivate::256-383         3389      3.83%     94.91% # Bytes accessed per row activation
system.mem_ctrls1.bytesPerActivate::384-511         1699      1.92%     96.83% # Bytes accessed per row activation
system.mem_ctrls1.bytesPerActivate::512-639         1108      1.25%     98.09% # Bytes accessed per row activation
system.mem_ctrls1.bytesPerActivate::640-767         1086      1.23%     99.31% # Bytes accessed per row activation
system.mem_ctrls1.bytesPerActivate::768-895          115      0.13%     99.44% # Bytes accessed per row activation
system.mem_ctrls1.bytesPerActivate::896-1023           92      0.10%     99.55% # Bytes accessed per row activation
system.mem_ctrls1.bytesPerActivate::1024-1151          402      0.45%    100.00% # Bytes accessed per row activation
system.mem_ctrls1.bytesPerActivate::total        88527                       # Bytes accessed per row activation
system.mem_ctrls1.rdPerTurnAround::samples         1209                       # Reads before turning the bus around for writes
system.mem_ctrls1.rdPerTurnAround::mean    111.452440                       # Reads before turning the bus around for writes
system.mem_ctrls1.rdPerTurnAround::gmean    32.224060                       # Reads before turning the bus around for writes
system.mem_ctrls1.rdPerTurnAround::stdev  1948.503262                       # Reads before turning the bus around for writes
system.mem_ctrls1.rdPerTurnAround::0-4095         1208     99.92%     99.92% # Reads before turning the bus around for writes
system.mem_ctrls1.rdPerTurnAround::65536-69631            1      0.08%    100.00% # Reads before turning the bus around for writes
system.mem_ctrls1.rdPerTurnAround::total         1209                       # Reads before turning the bus around for writes
system.mem_ctrls1.wrPerTurnAround::samples         1209                       # Writes before turning the bus around for reads
system.mem_ctrls1.wrPerTurnAround::mean     16.906534                       # Writes before turning the bus around for reads
system.mem_ctrls1.wrPerTurnAround::gmean    16.870888                       # Writes before turning the bus around for reads
system.mem_ctrls1.wrPerTurnAround::stdev     1.113002                       # Writes before turning the bus around for reads
system.mem_ctrls1.wrPerTurnAround::16             692     57.24%     57.24% # Writes before turning the bus around for reads
system.mem_ctrls1.wrPerTurnAround::17              40      3.31%     60.55% # Writes before turning the bus around for reads
system.mem_ctrls1.wrPerTurnAround::18             391     32.34%     92.89% # Writes before turning the bus around for reads
system.mem_ctrls1.wrPerTurnAround::19              70      5.79%     98.68% # Writes before turning the bus around for reads
system.mem_ctrls1.wrPerTurnAround::20              16      1.32%    100.00% # Writes before turning the bus around for reads
system.mem_ctrls1.wrPerTurnAround::total         1209                       # Writes before turning the bus around for reads
system.mem_ctrls1.totQLat                  3917792250                       # Total ticks spent queuing
system.mem_ctrls1.totMemAccLat             6444354750                       # Total ticks spent from burst creation until serviced by the DRAM
system.mem_ctrls1.totBusLat                 673750000                       # Total ticks spent in databus transfers
system.mem_ctrls1.avgQLat                    29074.53                       # Average queueing delay per DRAM burst
system.mem_ctrls1.avgBusLat                   5000.00                       # Average bus latency per DRAM burst
system.mem_ctrls1.avgMemAccLat               47824.53                       # Average memory access latency per DRAM burst
system.mem_ctrls1.avgRdBW                      645.69                       # Average DRAM read bandwidth in MiByte/s
system.mem_ctrls1.avgWrBW                       97.94                       # Average achieved write bandwidth in MiByte/s
system.mem_ctrls1.avgRdBWSys                   645.77                       # Average system read bandwidth in MiByte/s
system.mem_ctrls1.avgWrBWSys                    98.04                       # Average system write bandwidth in MiByte/s
system.mem_ctrls1.peakBW                     12800.00                       # Theoretical peak bandwidth in MiByte/s
system.mem_ctrls1.busUtil                        5.81                       # Data bus utilization in percentage
system.mem_ctrls1.busUtilRead                    5.04                       # Data bus utilization in percentage for reads
system.mem_ctrls1.busUtilWrite                   0.77                       # Data bus utilization in percentage for writes
system.mem_ctrls1.avgRdQLen                      1.54                       # Average read queue length when enqueuing
system.mem_ctrls1.avgWrQLen                     10.80                       # Average write queue length when enqueuing
system.mem_ctrls1.readRowHits                   60587                       # Number of row buffer hits during reads
system.mem_ctrls1.writeRowHits                   6072                       # Number of row buffer hits during writes
system.mem_ctrls1.readRowHitRate                44.96                       # Row buffer hit rate for reads
system.mem_ctrls1.writeRowHitRate               29.68                       # Row buffer hit rate for writes
system.mem_ctrls1.avgGap                     86040.77                       # Average gap between requests
system.mem_ctrls1.pageHitRate                   42.95                       # Row buffer hit rate, read and write combined
system.mem_ctrls1_0.actEnergy               309633240                       # Energy for activate commands per rank (pJ)
system.mem_ctrls1_0.preEnergy               164558790                       # Energy for precharge commands per rank (pJ)
system.mem_ctrls1_0.readEnergy              474188820                       # Energy for read commands per rank (pJ)
system.mem_ctrls1_0.writeEnergy              52836840                       # Energy for write commands per rank (pJ)
system.mem_ctrls1_0.refreshEnergy        1060254000.000000                       # Energy for refresh commands per rank (pJ)
system.mem_ctrls1_0.actBackEnergy          1364876400                       # Energy for active background per rank (pJ)
system.mem_ctrls1_0.preBackEnergy            25608960                       # Energy for precharge background per rank (pJ)
system.mem_ctrls1_0.actPowerDownEnergy     4343400570                       # Energy for active power-down per rank (pJ)
system.mem_ctrls1_0.prePowerDownEnergy      261775680                       # Energy for precharge power-down per rank (pJ)
system.mem_ctrls1_0.selfRefreshEnergy        34234620                       # Energy for self refresh per rank (pJ)
system.mem_ctrls1_0.totalEnergy            8091367920                       # Total energy per rank (pJ)
system.mem_ctrls1_0.averagePower           605.810449                       # Core power per rank (mW)
system.mem_ctrls1_0.totalIdleTime         10296582250                       # Total Idle time Per DRAM Rank
system.mem_ctrls1_0.memoryStateTime::IDLE     15379000                       # Time in different power states
system.mem_ctrls1_0.memoryStateTime::REF    448650000                       # Time in different power states
system.mem_ctrls1_0.memoryStateTime::SREF     89719750                       # Time in different power states
system.mem_ctrls1_0.memoryStateTime::PRE_PDN    681695000                       # Time in different power states
system.mem_ctrls1_0.memoryStateTime::ACT   2595530750                       # Time in different power states
system.mem_ctrls1_0.memoryStateTime::ACT_PDN   9525295500                       # Time in different power states
system.mem_ctrls1_1.actEnergy               322478100                       # Energy for activate commands per rank (pJ)
system.mem_ctrls1_1.preEnergy               171401175                       # Energy for precharge commands per rank (pJ)
system.mem_ctrls1_1.readEnergy              487926180                       # Energy for read commands per rank (pJ)
system.mem_ctrls1_1.writeEnergy              53859960                       # Energy for write commands per rank (pJ)
system.mem_ctrls1_1.refreshEnergy        1058410080.000000                       # Energy for refresh commands per rank (pJ)
system.mem_ctrls1_1.actBackEnergy          1395998970                       # Energy for active background per rank (pJ)
system.mem_ctrls1_1.preBackEnergy            25018080                       # Energy for precharge background per rank (pJ)
system.mem_ctrls1_1.actPowerDownEnergy     4341029940                       # Energy for active power-down per rank (pJ)
system.mem_ctrls1_1.prePowerDownEnergy      247864800                       # Energy for precharge power-down per rank (pJ)
system.mem_ctrls1_1.selfRefreshEnergy        24375750                       # Energy for self refresh per rank (pJ)
system.mem_ctrls1_1.totalEnergy            8128520085                       # Total energy per rank (pJ)
system.mem_ctrls1_1.averagePower           608.588772                       # Core power per rank (mW)
system.mem_ctrls1_1.totalIdleTime         10228711250                       # Total Idle time Per DRAM Rank
system.mem_ctrls1_1.memoryStateTime::IDLE     13227500                       # Time in different power states
system.mem_ctrls1_1.memoryStateTime::REF    447735750                       # Time in different power states
system.mem_ctrls1_1.memoryStateTime::SREF     64158000                       # Time in different power states
system.mem_ctrls1_1.memoryStateTime::PRE_PDN    645193000                       # Time in different power states
system.mem_ctrls1_1.memoryStateTime::ACT   2666595500                       # Time in different power states
system.mem_ctrls1_1.memoryStateTime::ACT_PDN   9519360250                       # Time in different power states
system.mem_ctrls2.pwrStateResidencyTicks::UNDEFINED  13356270000                       # Cumulative time (in ticks) in various power states
system.mem_ctrls2.bytes_read::ruby.dir_cntrl2      8540352                       # Number of bytes read from this memory
system.mem_ctrls2.bytes_read::total           8540352                       # Number of bytes read from this memory
system.mem_ctrls2.bytes_written::ruby.dir_cntrl2      1284096                       # Number of bytes written to this memory
system.mem_ctrls2.bytes_written::total        1284096                       # Number of bytes written to this memory
system.mem_ctrls2.num_reads::ruby.dir_cntrl2       133443                       # Number of read requests responded to by this memory
system.mem_ctrls2.num_reads::total             133443                       # Number of read requests responded to by this memory
system.mem_ctrls2.num_writes::ruby.dir_cntrl2        20064                       # Number of write requests responded to by this memory
system.mem_ctrls2.num_writes::total             20064                       # Number of write requests responded to by this memory
system.mem_ctrls2.bw_read::ruby.dir_cntrl2    639426427                       # Total read bandwidth from this memory (bytes/s)
system.mem_ctrls2.bw_read::total            639426427                       # Total read bandwidth from this memory (bytes/s)
system.mem_ctrls2.bw_write::ruby.dir_cntrl2     96141812                       # Write bandwidth from this memory (bytes/s)
system.mem_ctrls2.bw_write::total            96141812                       # Write bandwidth from this memory (bytes/s)
system.mem_ctrls2.bw_total::ruby.dir_cntrl2    735568239                       # Total bandwidth to/from this memory (bytes/s)
system.mem_ctrls2.bw_total::total           735568239                       # Total bandwidth to/from this memory (bytes/s)
system.mem_ctrls2.readReqs                     133443                       # Number of read requests accepted
system.mem_ctrls2.avgNetLat                      0.00                       # Average network latency to DRAM controller
system.mem_ctrls2.writeReqs                     20064                       # Number of write requests accepted
system.mem_ctrls2.readBursts                   133443                       # Number of DRAM read bursts, including those serviced by the write queue
system.mem_ctrls2.writeBursts                   20064                       # Number of DRAM write bursts, including those merged in the write queue
system.mem_ctrls2.bytesReadDRAM               8540032                       # Total number of bytes read from DRAM
system.mem_ctrls2.bytesReadWrQ                    320                       # Total number of bytes read from write queue
system.mem_ctrls2.bytesWritten                1282176                       # Total number of bytes written to DRAM
system.mem_ctrls2.bytesReadSys                8540352                       # Total read bytes from the system interface side
system.mem_ctrls2.bytesWrittenSys             1284096                       # Total written bytes from the system interface side
system.mem_ctrls2.servicedByWrQ                     5                       # Number of DRAM read bursts serviced by the write queue
system.mem_ctrls2.mergedWrBursts                    0                       # Number of DRAM write bursts merged with an existing one
system.mem_ctrls2.neitherReadNorWriteReqs            0                       # Number of requests that are neither read nor write
system.mem_ctrls2.perBankRdBursts::0             8729                       # Per bank write bursts
system.mem_ctrls2.perBankRdBursts::1             8890                       # Per bank write bursts
system.mem_ctrls2.perBankRdBursts::2             8102                       # Per bank write bursts
system.mem_ctrls2.perBankRdBursts::3             8101                       # Per bank write bursts
system.mem_ctrls2.perBankRdBursts::4             8108                       # Per bank write bursts
system.mem_ctrls2.perBankRdBursts::5             8056                       # Per bank write bursts
system.mem_ctrls2.perBankRdBursts::6             7889                       # Per bank write bursts
system.mem_ctrls2.perBankRdBursts::7             7876                       # Per bank write bursts
system.mem_ctrls2.perBankRdBursts::8             8036                       # Per bank write bursts
system.mem_ctrls2.perBankRdBursts::9             8036                       # Per bank write bursts
system.mem_ctrls2.perBankRdBursts::10            8637                       # Per bank write bursts
system.mem_ctrls2.perBankRdBursts::11            8536                       # Per bank write bursts
system.mem_ctrls2.perBankRdBursts::12            8547                       # Per bank write bursts
system.mem_ctrls2.perBankRdBursts::13            8670                       # Per bank write bursts
system.mem_ctrls2.perBankRdBursts::14            8535                       # Per bank write bursts
system.mem_ctrls2.perBankRdBursts::15            8690                       # Per bank write bursts
system.mem_ctrls2.perBankWrBursts::0             1176                       # Per bank write bursts
system.mem_ctrls2.perBankWrBursts::1             1317                       # Per bank write bursts
system.mem_ctrls2.perBankWrBursts::2             1272                       # Per bank write bursts
system.mem_ctrls2.perBankWrBursts::3             1335                       # Per bank write bursts
system.mem_ctrls2.perBankWrBursts::4             1265                       # Per bank write bursts
system.mem_ctrls2.perBankWrBursts::5             1147                       # Per bank write bursts
system.mem_ctrls2.perBankWrBursts::6             1135                       # Per bank write bursts
system.mem_ctrls2.perBankWrBursts::7             1309                       # Per bank write bursts
system.mem_ctrls2.perBankWrBursts::8             1229                       # Per bank write bursts
system.mem_ctrls2.perBankWrBursts::9             1400                       # Per bank write bursts
system.mem_ctrls2.perBankWrBursts::10            1285                       # Per bank write bursts
system.mem_ctrls2.perBankWrBursts::11            1265                       # Per bank write bursts
system.mem_ctrls2.perBankWrBursts::12            1327                       # Per bank write bursts
system.mem_ctrls2.perBankWrBursts::13            1121                       # Per bank write bursts
system.mem_ctrls2.perBankWrBursts::14            1176                       # Per bank write bursts
system.mem_ctrls2.perBankWrBursts::15            1275                       # Per bank write bursts
system.mem_ctrls2.numRdRetry                        0                       # Number of times read queue was full causing retry
system.mem_ctrls2.numWrRetry                        0                       # Number of times write queue was full causing retry
system.mem_ctrls2.totGap                  13355425500                       # Total gap between requests
system.mem_ctrls2.readPktSize::0                    0                       # Read request sizes (log2)
system.mem_ctrls2.readPktSize::1                    0                       # Read request sizes (log2)
system.mem_ctrls2.readPktSize::2                    0                       # Read request sizes (log2)
system.mem_ctrls2.readPktSize::3                    0                       # Read request sizes (log2)
system.mem_ctrls2.readPktSize::4                    0                       # Read request sizes (log2)
system.mem_ctrls2.readPktSize::5                    0                       # Read request sizes (log2)
system.mem_ctrls2.readPktSize::6               133443                       # Read request sizes (log2)
system.mem_ctrls2.writePktSize::0                   0                       # Write request sizes (log2)
system.mem_ctrls2.writePktSize::1                   0                       # Write request sizes (log2)
system.mem_ctrls2.writePktSize::2                   0                       # Write request sizes (log2)
system.mem_ctrls2.writePktSize::3                   0                       # Write request sizes (log2)
system.mem_ctrls2.writePktSize::4                   0                       # Write request sizes (log2)
system.mem_ctrls2.writePktSize::5                   0                       # Write request sizes (log2)
system.mem_ctrls2.writePktSize::6               20064                       # Write request sizes (log2)
system.mem_ctrls2.rdQLenPdf::0                  64828                       # What read queue length does an incoming req see
system.mem_ctrls2.rdQLenPdf::1                  34715                       # What read queue length does an incoming req see
system.mem_ctrls2.rdQLenPdf::2                  18049                       # What read queue length does an incoming req see
system.mem_ctrls2.rdQLenPdf::3                   9049                       # What read queue length does an incoming req see
system.mem_ctrls2.rdQLenPdf::4                   4158                       # What read queue length does an incoming req see
system.mem_ctrls2.rdQLenPdf::5                   1719                       # What read queue length does an incoming req see
system.mem_ctrls2.rdQLenPdf::6                    627                       # What read queue length does an incoming req see
system.mem_ctrls2.rdQLenPdf::7                    210                       # What read queue length does an incoming req see
system.mem_ctrls2.rdQLenPdf::8                     61                       # What read queue length does an incoming req see
system.mem_ctrls2.rdQLenPdf::9                     18                       # What read queue length does an incoming req see
system.mem_ctrls2.rdQLenPdf::10                     4                       # What read queue length does an incoming req see
system.mem_ctrls2.rdQLenPdf::11                     0                       # What read queue length does an incoming req see
system.mem_ctrls2.rdQLenPdf::12                     0                       # What read queue length does an incoming req see
system.mem_ctrls2.rdQLenPdf::13                     0                       # What read queue length does an incoming req see
system.mem_ctrls2.rdQLenPdf::14                     0                       # What read queue length does an incoming req see
system.mem_ctrls2.rdQLenPdf::15                     0                       # What read queue length does an incoming req see
system.mem_ctrls2.rdQLenPdf::16                     0                       # What read queue length does an incoming req see
system.mem_ctrls2.rdQLenPdf::17                     0                       # What read queue length does an incoming req see
system.mem_ctrls2.rdQLenPdf::18                     0                       # What read queue length does an incoming req see
system.mem_ctrls2.rdQLenPdf::19                     0                       # What read queue length does an incoming req see
system.mem_ctrls2.rdQLenPdf::20                     0                       # What read queue length does an incoming req see
system.mem_ctrls2.rdQLenPdf::21                     0                       # What read queue length does an incoming req see
system.mem_ctrls2.rdQLenPdf::22                     0                       # What read queue length does an incoming req see
system.mem_ctrls2.rdQLenPdf::23                     0                       # What read queue length does an incoming req see
system.mem_ctrls2.rdQLenPdf::24                     0                       # What read queue length does an incoming req see
system.mem_ctrls2.rdQLenPdf::25                     0                       # What read queue length does an incoming req see
system.mem_ctrls2.rdQLenPdf::26                     0                       # What read queue length does an incoming req see
system.mem_ctrls2.rdQLenPdf::27                     0                       # What read queue length does an incoming req see
system.mem_ctrls2.rdQLenPdf::28                     0                       # What read queue length does an incoming req see
system.mem_ctrls2.rdQLenPdf::29                     0                       # What read queue length does an incoming req see
system.mem_ctrls2.rdQLenPdf::30                     0                       # What read queue length does an incoming req see
system.mem_ctrls2.rdQLenPdf::31                     0                       # What read queue length does an incoming req see
system.mem_ctrls2.wrQLenPdf::0                      1                       # What write queue length does an incoming req see
system.mem_ctrls2.wrQLenPdf::1                      1                       # What write queue length does an incoming req see
system.mem_ctrls2.wrQLenPdf::2                      1                       # What write queue length does an incoming req see
system.mem_ctrls2.wrQLenPdf::3                      1                       # What write queue length does an incoming req see
system.mem_ctrls2.wrQLenPdf::4                      1                       # What write queue length does an incoming req see
system.mem_ctrls2.wrQLenPdf::5                      1                       # What write queue length does an incoming req see
system.mem_ctrls2.wrQLenPdf::6                      1                       # What write queue length does an incoming req see
system.mem_ctrls2.wrQLenPdf::7                      1                       # What write queue length does an incoming req see
system.mem_ctrls2.wrQLenPdf::8                      1                       # What write queue length does an incoming req see
system.mem_ctrls2.wrQLenPdf::9                      1                       # What write queue length does an incoming req see
system.mem_ctrls2.wrQLenPdf::10                     1                       # What write queue length does an incoming req see
system.mem_ctrls2.wrQLenPdf::11                     1                       # What write queue length does an incoming req see
system.mem_ctrls2.wrQLenPdf::12                     1                       # What write queue length does an incoming req see
system.mem_ctrls2.wrQLenPdf::13                     1                       # What write queue length does an incoming req see
system.mem_ctrls2.wrQLenPdf::14                     1                       # What write queue length does an incoming req see
system.mem_ctrls2.wrQLenPdf::15                   468                       # What write queue length does an incoming req see
system.mem_ctrls2.wrQLenPdf::16                   511                       # What write queue length does an incoming req see
system.mem_ctrls2.wrQLenPdf::17                   876                       # What write queue length does an incoming req see
system.mem_ctrls2.wrQLenPdf::18                  1137                       # What write queue length does an incoming req see
system.mem_ctrls2.wrQLenPdf::19                  1208                       # What write queue length does an incoming req see
[...]
system.ruby.L1Cache_Controller.MR.Load::total        48104                      
system.ruby.L1Cache_Controller.MR.Ifetch |         193      5.63%      5.63% |         188      5.48%     11.10% |         184      5.36%     16.47% |         190      5.54%     22.01% |         180      5.25%     27.25% |           0      0.00%     27.25% |           0      0.00%     27.25% |         208      6.06%     33.31% |         189      5.51%     38.82% |         190      5.54%     44.36% |         160      4.66%     49.02% |         214      6.24%     55.26% |         166      4.84%     60.10% |         191      5.57%     65.67% |         992     28.91%     94.58% |         186      5.42%    100.00%
system.ruby.L1Cache_Controller.MR.Ifetch::total         3431                      
system.ruby.L1Cache_Controller.MR.Store  |           8      6.56%      6.56% |           9      7.38%     13.93% |           9      7.38%     21.31% |           9      7.38%     28.69% |           8      6.56%     35.25% |           0      0.00%     35.25% |           0      0.00%     35.25% |           9      7.38%     42.62% |           8      6.56%     49.18% |           7      5.74%     54.92% |           9      7.38%     62.30% |           9      7.38%     69.67% |           9      7.38%     77.05% |          10      8.20%     85.25% |          10      8.20%     93.44% |           8      6.56%    100.00%
system.ruby.L1Cache_Controller.MR.Store::total          122                      
system.ruby.L1Cache_Controller.MMR.Load  |         884      4.42%      4.42% |         974      4.87%      9.30% |         786      3.93%     13.23% |         857      4.29%     17.52% |        1043      5.22%     22.74% |           0      0.00%     22.74% |           0      0.00%     22.74% |         946      4.73%     27.47% |        1009      5.05%     32.52% |         886      4.43%     36.95% |        1316      6.58%     43.54% |        1061      5.31%     48.85% |        5553     27.79%     76.63% |        1163      5.82%     82.45% |        1116      5.58%     88.04% |        2391     11.96%    100.00%
system.ruby.L1Cache_Controller.MMR.Load::total        19985                      
system.ruby.L1Cache_Controller.MMR.Store |        1463      8.00%      8.00% |        1518      8.30%     16.29% |        1568      8.57%     24.86% |        1010      5.52%     30.38% |        1442      7.88%     38.26% |           0      0.00%     38.26% |           0      0.00%     38.26% |        1463      8.00%     46.26% |        1434      7.84%     54.09% |         688      3.76%     57.85% |        1367      7.47%     65.32% |        1299      7.10%     72.42% |         842      4.60%     77.02% |        1446      7.90%     84.93% |        1317      7.20%     92.12% |        1441      7.88%    100.00%
system.ruby.L1Cache_Controller.MMR.Store::total        18298                      
system.ruby.L1Cache_Controller.IM.Ack    |      151208      8.22%      8.22% |      154097      8.37%     16.59% |      155348      8.44%     25.03% |      152398      8.28%     33.31% |      156866      8.52%     41.83% |        5836      0.32%     42.15% |        5883      0.32%     42.47% |      153260      8.33%     50.80% |      151232      8.22%     59.01% |       37927      2.06%     61.07% |      161259      8.76%     69.83% |      164779      8.95%     78.79% |       37295      2.03%     80.81% |      155887      8.47%     89.28% |      159737      8.68%     97.96% |       37513      2.04%    100.00%
system.ruby.L1Cache_Controller.IM.Ack::total      1840525                      
system.ruby.L1Cache_Controller.IM.Exclusive_Data |       10099      8.20%      8.20% |       10290      8.35%     16.55% |       10373      8.42%     24.98% |       10177      8.26%     33.24% |       10476      8.51%     41.75% |         525      0.43%     42.17% |         525      0.43%     42.60% |       10228      8.30%     50.90% |       10091      8.19%     59.10% |        2545      2.07%     61.16% |       10766      8.74%     69.90% |       10996      8.93%     78.83% |        2498      2.03%     80.86% |       10404      8.45%     89.31% |       10662      8.66%     97.96% |        2508      2.04%    100.00%
system.ruby.L1Cache_Controller.IM.Exclusive_Data::total       123163                      
system.ruby.L1Cache_Controller.SM.Ack    |           7      5.88%      5.88% |           8      6.72%     12.61% |           7      5.88%     18.49% |           3      2.52%     21.01% |           6      5.04%     26.05% |           0      0.00%     26.05% |           0      0.00%     26.05% |           7      5.88%     31.93% |          10      8.40%     40.34% |           6      5.04%     45.38% |          12     10.08%     55.46% |          14     11.76%     67.23% |           8      6.72%     73.95% |           5      4.20%     78.15% |          12     10.08%     88.24% |          14     11.76%    100.00%
system.ruby.L1Cache_Controller.SM.Ack::total          119                      
system.ruby.L1Cache_Controller.SM.Data   |           1      7.14%      7.14% |           1      7.14%     14.29% |           1      7.14%     21.43% |           1      7.14%     28.57% |           1      7.14%     35.71% |           0      0.00%     35.71% |           0      0.00%     35.71% |           1      7.14%     42.86% |           1      7.14%     50.00% |           1      7.14%     57.14% |           1      7.14%     64.29% |           1      7.14%     71.43% |           1      7.14%     78.57% |           1      7.14%     85.71% |           1      7.14%     92.86% |           1      7.14%    100.00%
system.ruby.L1Cache_Controller.SM.Data::total           14                      
system.ruby.L1Cache_Controller.ISM.Ack   |           7      9.09%      9.09% |           6      7.79%     16.88% |           7      9.09%     25.97% |          11     14.29%     40.26% |           8     10.39%     50.65% |           0      0.00%     50.65% |           0      0.00%     50.65% |           7      9.09%     59.74% |           4      5.19%     64.94% |           8     10.39%     75.32% |           2      2.60%     77.92% |           0      0.00%     77.92% |           6      7.79%     85.71% |           9     11.69%     97.40% |           2      2.60%    100.00% |           0      0.00%    100.00%
system.ruby.L1Cache_Controller.ISM.Ack::total           77                      
system.ruby.L1Cache_Controller.ISM.All_acks_no_sharers |           1      7.14%      7.14% |           1      7.14%     14.29% |           1      7.14%     21.43% |           1      7.14%     28.57% |           1      7.14%     35.71% |           0      0.00%     35.71% |           0      0.00%     35.71% |           1      7.14%     42.86% |           1      7.14%     50.00% |           1      7.14%     57.14% |           1      7.14%     64.29% |           1      7.14%     71.43% |           1      7.14%     78.57% |           1      7.14%     85.71% |           1      7.14%     92.86% |           1      7.14%    100.00%
system.ruby.L1Cache_Controller.ISM.All_acks_no_sharers::total           14                      
system.ruby.L1Cache_Controller.M_W.Load  |           1    100.00%    100.00% |           0      0.00%    100.00% |           0      0.00%    100.00% |           0      0.00%    100.00% |           0      0.00%    100.00% |           0      0.00%    100.00% |           0      0.00%    100.00% |           0      0.00%    100.00% |           0      0.00%    100.00% |           0      0.00%    100.00% |           0      0.00%    100.00% |           0      0.00%    100.00% |           0      0.00%    100.00% |           0      0.00%    100.00% |           0      0.00%    100.00% |           0      0.00%    100.00%
system.ruby.L1Cache_Controller.M_W.Load::total            1                      
system.ruby.L1Cache_Controller.M_W.Ifetch |           0      0.00%      0.00% |           0      0.00%      0.00% |           0      0.00%      0.00% |           0      0.00%      0.00% |           0      0.00%      0.00% |           0      0.00%      0.00% |           0      0.00%      0.00% |           1     33.33%     33.33% |           0      0.00%     33.33% |           2     66.67%    100.00% |           0      0.00%    100.00% |           0      0.00%    100.00% |           0      0.00%    100.00% |           0      0.00%    100.00% |           0      0.00%    100.00% |           0      0.00%    100.00%
system.ruby.L1Cache_Controller.M_W.Ifetch::total            3                      
system.ruby.L1Cache_Controller.M_W.Store |           0      0.00%      0.00% |           0      0.00%      0.00% |           0      0.00%      0.00% |           0      0.00%      0.00% |           0      0.00%      0.00% |           0      0.00%      0.00% |           0      0.00%      0.00% |           0      0.00%      0.00% |           0      0.00%      0.00% |           0      0.00%      0.00% |           0      0.00%      0.00% |           0      0.00%      0.00% |           3     75.00%     75.00% |           1     25.00%    100.00% |           0      0.00%    100.00% |           0      0.00%    100.00%
system.ruby.L1Cache_Controller.M_W.Store::total            4                      
system.ruby.L1Cache_Controller.M_W.Ack   |         708      6.48%      6.48% |         628      5.75%     12.24% |         650      5.95%     18.19% |         654      5.99%     24.18% |         741      6.79%     30.96% |        1730     15.84%     46.81% |        1661     15.21%     62.02% |         415      3.80%     65.82% |         331      3.03%     68.85% |         637      5.83%     74.69% |         567      5.19%     79.88% |         385      3.53%     83.41% |         523      4.79%     88.19% |         461      4.22%     92.42% |         444      4.07%     96.48% |         384      3.52%    100.00%
system.ruby.L1Cache_Controller.M_W.Ack::total        10919                      
system.ruby.L1Cache_Controller.M_W.All_acks_no_sharers |       17015      4.08%      4.08% |       17254      4.14%      8.23% |        9519      2.29%     10.51% |        9519      2.29%     12.80% |       32746      7.86%     20.66% |         364      0.09%     20.74% |         364      0.09%     20.83% |       24613      5.91%     26.74% |       24332      5.84%     32.58% |        9519      2.29%     34.87% |       49657     11.92%     46.79% |       41142      9.88%     56.66% |       57520     13.81%     70.47% |       32857      7.89%     78.36% |       40763      9.79%     88.14% |       49394     11.86%    100.00%
system.ruby.L1Cache_Controller.M_W.All_acks_no_sharers::total       416578                      
system.ruby.L1Cache_Controller.MM_W.Store |           1     33.33%     33.33% |           1     33.33%     66.67% |           0      0.00%     66.67% |           1     33.33%    100.00% |           0      0.00%    100.00% |           0      0.00%    100.00% |           0      0.00%    100.00% |           0      0.00%    100.00% |           0      0.00%    100.00% |           0      0.00%    100.00% |           0      0.00%    100.00% |           0      0.00%    100.00% |           0      0.00%    100.00% |           0      0.00%    100.00% |           0      0.00%    100.00% |           0      0.00%    100.00%
system.ruby.L1Cache_Controller.MM_W.Store::total            3                      
system.ruby.L1Cache_Controller.MM_W.Ack  |         251      4.28%      4.28% |         227      3.87%      8.16% |         221      3.77%     11.93% |         231      3.94%     15.87% |         248      4.23%     20.11% |        1689     28.83%     48.93% |        1642     28.03%     76.96% |         134      2.29%     79.25% |         107      1.83%     81.07% |         222      3.79%     84.86% |         205      3.50%     88.36% |         135      2.30%     90.66% |         152      2.59%     93.26% |         147      2.51%     95.77% |         167      2.85%     98.62% |          81      1.38%    100.00%
system.ruby.L1Cache_Controller.MM_W.Ack::total         5859                      
system.ruby.L1Cache_Controller.MM_W.All_acks_no_sharers |       10099      8.20%      8.20% |       10290      8.35%     16.55% |       10373      8.42%     24.98% |       10177      8.26%     33.24% |       10476      8.51%     41.74% |         525      0.43%     42.17% |         525      0.43%     42.60% |       10228      8.30%     50.90% |       10091      8.19%     59.09% |        2545      2.07%     61.16% |       10766      8.74%     69.90% |       10996      8.93%     78.83% |        2501      2.03%     80.86% |       10405      8.45%     89.31% |       10662      8.66%     97.96% |        2508      2.04%    100.00%
system.ruby.L1Cache_Controller.MM_W.All_acks_no_sharers::total       123167                      
system.ruby.L1Cache_Controller.IS.Ack    |      254447      4.08%      4.08% |      258114      4.14%      8.22% |      142066      2.28%     10.50% |      142060      2.28%     12.78% |      490379      7.86%     20.64% |        3366      0.05%     20.69% |        3435      0.06%     20.75% |      368714      5.91%     26.66% |      364584      5.85%     32.51% |      142077      2.28%     34.78% |      744223     11.93%     46.72% |      616684      9.89%     56.61% |      862256     13.83%     70.43% |      492340      7.89%     78.33% |      610936      9.80%     88.13% |      740462     11.87%    100.00%
system.ruby.L1Cache_Controller.IS.Ack::total      6236143                      
system.ruby.L1Cache_Controller.IS.Shared_Data |           1      7.14%      7.14% |           1      7.14%     14.29% |           1      7.14%     21.43% |           1      7.14%     28.57% |           1      7.14%     35.71% |           0      0.00%     35.71% |           0      0.00%     35.71% |           1      7.14%     42.86% |           1      7.14%     50.00% |           1      7.14%     57.14% |           1      7.14%     64.29% |           1      7.14%     71.43% |           1      7.14%     78.57% |           1      7.14%     85.71% |           1      7.14%     92.86% |           1      7.14%    100.00%
system.ruby.L1Cache_Controller.IS.Shared_Data::total           14                      
system.ruby.L1Cache_Controller.IS.Exclusive_Data |       17015      4.08%      4.08% |       17254      4.14%      8.23% |        9519      2.29%     10.51% |        9519      2.29%     12.80% |       32746      7.86%     20.66% |         364      0.09%     20.74% |         364      0.09%     20.83% |       24613      5.91%     26.74% |       24332      5.84%     32.58% |        9519      2.29%     34.87% |       49657     11.92%     46.79% |       41142      9.88%     56.66% |       57523     13.81%     70.47% |       32858      7.89%     78.36% |       40763      9.79%     88.14% |       49394     11.86%    100.00%
system.ruby.L1Cache_Controller.IS.Exclusive_Data::total       416582                      
system.ruby.L1Cache_Controller.SS.Ack    |           9     10.84%     10.84% |           7      8.43%     19.28% |           8      9.64%     28.92% |          10     12.05%     40.96% |           9     10.84%     51.81% |           0      0.00%     51.81% |           0      0.00%     51.81% |           5      6.02%     57.83% |           4      4.82%     62.65% |          10     12.05%     74.70% |           4      4.82%     79.52% |           0      0.00%     79.52% |           2      2.41%     81.93% |           8      9.64%     91.57% |           4      4.82%     96.39% |           3      3.61%    100.00%
system.ruby.L1Cache_Controller.SS.Ack::total           83                      
system.ruby.L1Cache_Controller.SS.All_acks |           1      7.14%      7.14% |           1      7.14%     14.29% |           1      7.14%     21.43% |           1      7.14%     28.57% |           1      7.14%     35.71% |           0      0.00%     35.71% |           0      0.00%     35.71% |           1      7.14%     42.86% |           1      7.14%     50.00% |           1      7.14%     57.14% |           1      7.14%     64.29% |           1      7.14%     71.43% |           1      7.14%     78.57% |           1      7.14%     85.71% |           1      7.14%     92.86% |           1      7.14%    100.00%
system.ruby.L1Cache_Controller.SS.All_acks::total           14                      
system.ruby.L1Cache_Controller.MI.Load   |           1      2.04%      2.04% |           0      0.00%      2.04% |           0      0.00%      2.04% |           0      0.00%      2.04% |           3      6.12%      8.16% |           0      0.00%      8.16% |           0      0.00%      8.16% |           3      6.12%     14.29% |           0      0.00%     14.29% |           0      0.00%     14.29% |           4      8.16%     22.45% |           7     14.29%     36.73% |           6     12.24%     48.98% |           7     14.29%     63.27% |           4      8.16%     71.43% |          14     28.57%    100.00%
system.ruby.L1Cache_Controller.MI.Load::total           49                      
system.ruby.L1Cache_Controller.MI.Store  |           1     16.67%     16.67% |           0      0.00%     16.67% |           0      0.00%     16.67% |           0      0.00%     16.67% |           0      0.00%     16.67% |           0      0.00%     16.67% |           0      0.00%     16.67% |           0      0.00%     16.67% |           0      0.00%     16.67% |           0      0.00%     16.67% |           1     16.67%     33.33% |           1     16.67%     50.00% |           0      0.00%     50.00% |           0      0.00%     50.00% |           3     50.00%    100.00% |           0      0.00%    100.00%
system.ruby.L1Cache_Controller.MI.Store::total            6                      
system.ruby.L1Cache_Controller.MI.Writeback_Ack |         266      0.20%      0.20% |         885      0.68%      0.88% |           2      0.00%      0.88% |          21      0.02%      0.90% |        9122      6.99%      7.89% |           0      0.00%      7.89% |           0      0.00%      7.89% |        3574      2.74%     10.63% |        2817      2.16%     12.79% |           1      0.00%     12.79% |       26092     20.00%     32.80% |       17860     13.69%     46.49% |       25814     19.79%     66.28% |        9125      7.00%     73.27% |       17164     13.16%     86.43% |       17699     13.57%    100.00%
system.ruby.L1Cache_Controller.MI.Writeback_Ack::total       130442                      
system.ruby.L1Cache_Controller.MT.Complete_L2_to_L1 |        3553      6.88%      6.88% |        3606      6.98%     13.86% |        4274      8.27%     22.13% |        3683      7.13%     29.26% |        3567      6.91%     36.17% |           0      0.00%     36.17% |           0      0.00%     36.17% |        3662      7.09%     43.26% |        3579      6.93%     50.18% |        3571      6.91%     57.10% |        3572      6.91%     64.01% |        3611      6.99%     71.00% |        3517      6.81%     77.81% |        3534      6.84%     84.65% |        4355      8.43%     93.08% |        3573      6.92%    100.00%
system.ruby.L1Cache_Controller.MT.Complete_L2_to_L1::total        51657                      
system.ruby.L1Cache_Controller.MMT.Complete_L2_to_L1 |        2347      6.13%      6.13% |        2492      6.51%     12.64% |        2354      6.15%     18.79% |        1867      4.88%     23.67% |        2485      6.49%     30.16% |           0      0.00%     30.16% |           0      0.00%     30.16% |        2409      6.29%     36.45% |        2443      6.38%     42.83% |        1574      4.11%     46.94% |        2683      7.01%     53.95% |        2360      6.16%     60.12% |        6395     16.70%     76.82% |        2609      6.82%     83.64% |        2433      6.36%     89.99% |        3832     10.01%    100.00%
system.ruby.L1Cache_Controller.MMT.Complete_L2_to_L1::total        38283                      

---------- End Simulation Statistics   ----------
