
---------- Begin Simulation Statistics ----------
sim_seconds                                  0.016024                       # Number of seconds simulated
sim_ticks                                 16024385000                       # Number of ticks simulated
final_tick                                16024385000                       # Number of ticks from beginning of simulation (restored from checkpoints and never reset)
sim_freq                                 1000000000000                       # Frequency of simulated ticks
host_inst_rate                                  54865                       # Simulator instruction rate (inst/s)
host_op_rate                                    95170                       # Simulator op (including micro ops) rate (op/s)
host_tick_rate                               18903561                       # Simulator tick rate (ticks/s)
host_mem_usage                                2044236                       # Number of bytes of host memory used
host_seconds                                   847.69                       # Real time elapsed on the host
sim_insts                                    46508968                       # Number of instructions simulated
sim_ops                                      80674956                       # Number of ops (including micro ops) simulated
system.voltage_domain.voltage                       1                       # Voltage in Volts
system.clk_domain.clock                          1000                       # Clock period in ticks
system.mem_ctrls0.pwrStateResidencyTicks::UNDEFINED  16024385000                       # Cumulative time (in ticks) in various power states
system.mem_ctrls0.bytes_read::ruby.dir_cntrl0     10758592                       # Number of bytes read from this memory
system.mem_ctrls0.bytes_read::total          10758592                       # Number of bytes read from this memory
system.mem_ctrls0.bytes_written::ruby.dir_cntrl0      1416128                       # Number of bytes written to this memory
system.mem_ctrls0.bytes_written::total        1416128                       # Number of bytes written to this memory
system.mem_ctrls0.num_reads::ruby.dir_cntrl0       168103                       # Number of read requests responded to by this memory
system.mem_ctrls0.num_reads::total             168103                       # Number of read requests responded to by this memory
system.mem_ctrls0.num_writes::ruby.dir_cntrl0        22127                       # Number of write requests responded to by this memory
system.mem_ctrls0.num_writes::total             22127                       # Number of write requests responded to by this memory
system.mem_ctrls0.bw_read::ruby.dir_cntrl0    671388762                       # Total read bandwidth from this memory (bytes/s)
system.mem_ctrls0.bw_read::total            671388762                       # Total read bandwidth from this memory (bytes/s)
system.mem_ctrls0.bw_write::ruby.dir_cntrl0     88373314                       # Write bandwidth from this memory (bytes/s)
system.mem_ctrls0.bw_write::total            88373314                       # Write bandwidth from this memory (bytes/s)
system.mem_ctrls0.bw_total::ruby.dir_cntrl0    759762075                       # Total bandwidth to/from this memory (bytes/s)
system.mem_ctrls0.bw_total::total           759762075                       # Total bandwidth to/from this memory (bytes/s)
system.mem_ctrls0.readReqs                     168103                       # Number of read requests accepted
system.mem_ctrls0.avgNetLat                      0.00                       # Average network latency to DRAM controller
system.mem_ctrls0.writeReqs                     22127                       # Number of write requests accepted
system.mem_ctrls0.readBursts                   168103                       # Number of DRAM read bursts, including those serviced by the write queue
system.mem_ctrls0.writeBursts                   22127                       # Number of DRAM write bursts, including those merged in the write queue
system.mem_ctrls0.bytesReadDRAM              10758400                       # Total number of bytes read from DRAM
system.mem_ctrls0.bytesReadWrQ                    192                       # Total number of bytes read from write queue
system.mem_ctrls0.bytesWritten                1414400                       # Total number of bytes written to DRAM
system.mem_ctrls0.bytesReadSys               10758592                       # Total read bytes from the system interface side
system.mem_ctrls0.bytesWrittenSys             1416128                       # Total written bytes from the system interface side
system.mem_ctrls0.servicedByWrQ                     3                       # Number of DRAM read bursts serviced by the write queue
system.mem_ctrls0.mergedWrBursts                    0                       # Number of DRAM write bursts merged with an existing one
system.mem_ctrls0.neitherReadNorWriteReqs            0                       # Number of requests that are neither read nor write
system.mem_ctrls0.perBankRdBursts::0            10622                       # Per bank write bursts
system.mem_ctrls0.perBankRdBursts::1            10708                       # Per bank write bursts
system.mem_ctrls0.perBankRdBursts::2            10298                       # Per bank write bursts
system.mem_ctrls0.perBankRdBursts::3            10299                       # Per bank write bursts
system.mem_ctrls0.perBankRdBursts::4             9670                       # Per bank write bursts
system.mem_ctrls0.perBankRdBursts::5             9631                       # Per bank write bursts
system.mem_ctrls0.perBankRdBursts::6             9676                       # Per bank write bursts
system.mem_ctrls0.perBankRdBursts::7             9919                       # Per bank write bursts
system.mem_ctrls0.perBankRdBursts::8            10044                       # Per bank write bursts
system.mem_ctrls0.perBankRdBursts::9            10188                       # Per bank write bursts
system.mem_ctrls0.perBankRdBursts::10           11064                       # Per bank write bursts
system.mem_ctrls0.perBankRdBursts::11           11087                       # Per bank write bursts
system.mem_ctrls0.perBankRdBursts::12           11638                       # Per bank write bursts
system.mem_ctrls0.perBankRdBursts::13           11739                       # Per bank write bursts
system.mem_ctrls0.perBankRdBursts::14           10959                       # Per bank write bursts
system.mem_ctrls0.perBankRdBursts::15           10558                       # Per bank write bursts
system.mem_ctrls0.perBankWrBursts::0             1382                       # Per bank write bursts
system.mem_ctrls0.perBankWrBursts::1             1335                       # Per bank write bursts
system.mem_ctrls0.perBankWrBursts::2             1316                       # Per bank write bursts
system.mem_ctrls0.perBankWrBursts::3             1338                       # Per bank write bursts
system.mem_ctrls0.perBankWrBursts::4             1208                       # Per bank write bursts
system.mem_ctrls0.perBankWrBursts::5             1095                       # Per bank write bursts
system.mem_ctrls0.perBankWrBursts::6             1122                       # Per bank write bursts
system.mem_ctrls0.perBankWrBursts::7             1191                       # Per bank write bursts
system.mem_ctrls0.perBankWrBursts::8             1287                       # Per bank write bursts
system.mem_ctrls0.perBankWrBursts::9             1365                       # Per bank write bursts
system.mem_ctrls0.perBankWrBursts::10            1567                       # Per bank write bursts
system.mem_ctrls0.perBankWrBursts::11            1563                       # Per bank write bursts
system.mem_ctrls0.perBankWrBursts::12            1755                       # Per bank write bursts
system.mem_ctrls0.perBankWrBursts::13            1718                       # Per bank write bursts
system.mem_ctrls0.perBankWrBursts::14            1470                       # Per bank write bursts
system.mem_ctrls0.perBankWrBursts::15            1388                       # Per bank write bursts
system.mem_ctrls0.numRdRetry                        0                       # Number of times read queue was full causing retry
system.mem_ctrls0.numWrRetry                        0                       # Number of times write queue was full causing retry
system.mem_ctrls0.totGap                  16023248500                       # Total gap between requests
system.mem_ctrls0.readPktSize::0                    0                       # Read request sizes (log2)
system.mem_ctrls0.readPktSize::1                    0                       # Read request sizes (log2)
system.mem_ctrls0.readPktSize::2                    0                       # Read request sizes (log2)
system.mem_ctrls0.readPktSize::3                    0                       # Read request sizes (log2)
system.mem_ctrls0.readPktSize::4                    0                       # Read request sizes (log2)
system.mem_ctrls0.readPktSize::5                    0                       # Read request sizes (log2)
system.mem_ctrls0.readPktSize::6               168103                       # Read request sizes (log2)
system.mem_ctrls0.writePktSize::0                   0                       # Write request sizes (log2)
system.mem_ctrls0.writePktSize::1                   0                       # Write request sizes (log2)
system.mem_ctrls0.writePktSize::2                   0                       # Write request sizes (log2)
system.mem_ctrls0.writePktSize::3                   0                       # Write request sizes (log2)
system.mem_ctrls0.writePktSize::4                   0                       # Write request sizes (log2)
system.mem_ctrls0.writePktSize::5                   0                       # Write request sizes (log2)
system.mem_ctrls0.writePktSize::6               22127                       # Write request sizes (log2)
system.mem_ctrls0.rdQLenPdf::0                  82683                       # What read queue length does an incoming req see
system.mem_ctrls0.rdQLenPdf::1                  45725                       # What read queue length does an incoming req see
system.mem_ctrls0.rdQLenPdf::2                  22821                       # What read queue length does an incoming req see
system.mem_ctrls0.rdQLenPdf::3                  10382                       # What read queue length does an incoming req see
system.mem_ctrls0.rdQLenPdf::4                   4157                       # What read queue length does an incoming req see
system.mem_ctrls0.rdQLenPdf::5                   1556                       # What read queue length does an incoming req see
system.mem_ctrls0.rdQLenPdf::6                    531                       # What read queue length does an incoming req see
system.mem_ctrls0.rdQLenPdf::7                    159                       # What read queue length does an incoming req see
system.mem_ctrls0.rdQLenPdf::8                     65                       # What read queue length does an incoming req see
system.mem_ctrls0.rdQLenPdf::9                     17                       # What read queue length does an incoming req see
system.mem_ctrls0.rdQLenPdf::10                     2                       # What read queue length does an incoming req see
system.mem_ctrls0.rdQLenPdf::11                     1                       # What read queue length does an incoming req see
system.mem_ctrls0.rdQLenPdf::12                     1                       # What read queue length does an incoming req see
system.mem_ctrls0.rdQLenPdf::13                     0                       # What read queue length does an incoming req see
system.mem_ctrls0.rdQLenPdf::14                     0                       # What read queue length does an incoming req see
system.mem_ctrls0.rdQLenPdf::15                     0                       # What read queue length does an incoming req see
system.mem_ctrls0.rdQLenPdf::16                     0                       # What read queue length does an incoming req see
system.mem_ctrls0.rdQLenPdf::17                     0                       # What read queue length does an incoming req see
system.mem_ctrls0.rdQLenPdf::18                     0                       # What read queue length does an incoming req see
system.mem_ctrls0.rdQLenPdf::19                     0                       # What read queue length does an incoming req see
system.mem_ctrls0.rdQLenPdf::20                     0                       # What read queue length does an incoming req see
system.mem_ctrls0.rdQLenPdf::21                     0                       # What read queue length does an incoming req see
system.mem_ctrls0.rdQLenPdf::22                     0                       # What read queue length does an incoming req see
system.mem_ctrls0.rdQLenPdf::23                     0                       # What read queue length does an incoming req see
system.mem_ctrls0.rdQLenPdf::24                     0                       # What read queue length does an incoming req see
system.mem_ctrls0.rdQLenPdf::25                     0                       # What read queue length does an incoming req see
system.mem_ctrls0.rdQLenPdf::26                     0                       # What read queue length does an incoming req see
system.mem_ctrls0.rdQLenPdf::27                     0                       # What read queue length does an incoming req see
system.mem_ctrls0.rdQLenPdf::28                     0                       # What read queue length does an incoming req see
system.mem_ctrls0.rdQLenPdf::29                     0                       # What read queue length does an incoming req see
system.mem_ctrls0.rdQLenPdf::30                     0                       # What read queue length does an incoming req see
system.mem_ctrls0.rdQLenPdf::31                     0                       # What read queue length does an incoming req see
system.mem_ctrls0.wrQLenPdf::0                      1                       # What write queue length does an incoming req see
system.mem_ctrls0.wrQLenPdf::1                      1                       # What write queue length does an incoming req see
system.mem_ctrls0.wrQLenPdf::2                      1                       # What write queue length does an incoming req see
system.mem_ctrls0.wrQLenPdf::3                      1                       # What write queue length does an incoming req see
system.mem_ctrls0.wrQLenPdf::4                      1                       # What write queue length does an incoming req see
system.mem_ctrls0.wrQLenPdf::5                      1                       # What write queue length does an incoming req see
system.mem_ctrls0.wrQLenPdf::6                      1                       # What write queue length does an incoming req see
system.mem_ctrls0.wrQLenPdf::7                      1                       # What write queue length does an incoming req see
system.mem_ctrls0.wrQLenPdf::8                      1                       # What write queue length does an incoming req see
system.mem_ctrls0.wrQLenPdf::9                      1                       # What write queue length does an incoming req see
system.mem_ctrls0.wrQLenPdf::10                     1                       # What write queue length does an incoming req see
system.mem_ctrls0.wrQLenPdf::11                     1                       # What write queue length does an incoming req see
system.mem_ctrls0.wrQLenPdf::12                     1                       # What write queue length does an incoming req see
system.mem_ctrls0.wrQLenPdf::13                     1                       # What write queue length does an incoming req see
system.mem_ctrls0.wrQLenPdf::14                     1                       # What write queue length does an incoming req see
system.mem_ctrls0.wrQLenPdf::15                   324                       # What write queue length does an incoming req see
system.mem_ctrls0.wrQLenPdf::16                   382                       # What write queue length does an incoming req see
system.mem_ctrls0.wrQLenPdf::17                   852                       # What write queue length does an incoming req see
system.mem_ctrls0.wrQLenPdf::18                  1244                       # What write queue length does an incoming req see
system.mem_ctrls0.wrQLenPdf::19                  1369                       # What write queue length does an incoming req see
system.mem_ctrls0.wrQLenPdf::20                  1390                       # What write queue length does an incoming req see
system.mem_ctrls0.wrQLenPdf::21                  1380                       # What write queue length does an incoming req see
system.mem_ctrls0.wrQLenPdf::22                  1389                       # What write queue length does an incoming req see
system.mem_ctrls0.wrQLenPdf::23                  1381                       # What write queue length does an incoming req see
system.mem_ctrls0.wrQLenPdf::24                  1394                       # What write queue length does an incoming req see
system.mem_ctrls0.wrQLenPdf::25                  1378                       # What write queue length does an incoming req see
system.mem_ctrls0.wrQLenPdf::26                  1363                       # What write queue length does an incoming req see
system.mem_ctrls0.wrQLenPdf::27                  1370                       # What write queue length does an incoming req see
system.mem_ctrls0.wrQLenPdf::28                  1367                       # What write queue length does an incoming req see
system.mem_ctrls0.wrQLenPdf::29                  1376                       # What write queue length does an incoming req see
system.mem_ctrls0.wrQLenPdf::30                  1371                       # What write queue length does an incoming req see
system.mem_ctrls0.wrQLenPdf::31                  1373                       # What write queue length does an incoming req see
system.mem_ctrls0.wrQLenPdf::32                  1369                       # What write queue length does an incoming req see
system.mem_ctrls0.wrQLenPdf::33                    34                       # What write queue length does an incoming req see
system.mem_ctrls0.wrQLenPdf::34                     5                       # What write queue length does an incoming req see
system.mem_ctrls0.wrQLenPdf::35                     1                       # What write queue length does an incoming req see
system.mem_ctrls0.wrQLenPdf::36                     0                       # What write queue length does an incoming req see
system.mem_ctrls0.wrQLenPdf::37                     0                       # What write queue length does an incoming req see
system.mem_ctrls0.wrQLenPdf::38                     0                       # What write queue length does an incoming req see
system.mem_ctrls0.wrQLenPdf::39                     0                       # What write queue length does an incoming req see
system.mem_ctrls0.wrQLenPdf::40                     0                       # What write queue length does an incoming req see
system.mem_ctrls0.wrQLenPdf::41                     0                       # What write queue length does an incoming req see
system.mem_ctrls0.wrQLenPdf::42                     0                       # What write queue length does an incoming req see
system.mem_ctrls0.wrQLenPdf::43                     0                       # What write queue length does an incoming req see
system.mem_ctrls0.wrQLenPdf::44                     0                       # What write queue length does an incoming req see
system.mem_ctrls0.wrQLenPdf::45                     0                       # What write queue length does an incoming req see
system.mem_ctrls0.wrQLenPdf::46                     0                       # What write queue length does an incoming req see
system.mem_ctrls0.wrQLenPdf::47                     0                       # What write queue length does an incoming req see
system.mem_ctrls0.wrQLenPdf::48                     0                       # What write queue length does an incoming req see
system.mem_ctrls0.wrQLenPdf::49                     0                       # What write queue length does an incoming req see
system.mem_ctrls0.wrQLenPdf::50                     0                       # What write queue length does an incoming req see
system.mem_ctrls0.wrQLenPdf::51                     0                       # What write queue length does an incoming req see
system.mem_ctrls0.wrQLenPdf::52                     0                       # What write queue length does an incoming req see
system.mem_ctrls0.wrQLenPdf::53                     0                       # What write queue length does an incoming req see
system.mem_ctrls0.wrQLenPdf::54                     0                       # What write queue length does an incoming req see
system.mem_ctrls0.wrQLenPdf::55                     0                       # What write queue length does an incoming req see
system.mem_ctrls0.wrQLenPdf::56                     0                       # What write queue length does an incoming req see
system.mem_ctrls0.wrQLenPdf::57                     0                       # What write queue length does an incoming req see
system.mem_ctrls0.wrQLenPdf::58                     0                       # What write queue length does an incoming req see
system.mem_ctrls0.wrQLenPdf::59                     0                       # What write queue length does an incoming req see
system.mem_ctrls0.wrQLenPdf::60                     0                       # What write queue length does an incoming req see
system.mem_ctrls0.wrQLenPdf::61                     0                       # What write queue length does an incoming req see
system.mem_ctrls0.wrQLenPdf::62                     0                       # What write queue length does an incoming req see
system.mem_ctrls0.wrQLenPdf::63                     0                       # What write queue length does an incoming req see
system.mem_ctrls0.bytesPerActivate::samples       108742                       # Bytes accessed per row activation
system.mem_ctrls0.bytesPerActivate::mean   111.934377                       # Bytes accessed per row activation
system.mem_ctrls0.bytesPerActivate::gmean    88.285628                       # Bytes accessed per row activation
system.mem_ctrls0.bytesPerActivate::stdev   115.623621                       # Bytes accessed per row activation
system.mem_ctrls0.bytesPerActivate::0-127        76397     70.26%     70.26% # Bytes accessed per row activation
system.mem_ctrls0.bytesPerActivate::128-255        22117     20.34%     90.59% # Bytes accessed per row activation
system.mem_ctrls0.bytesPerActivate::256-383         4713      4.33%     94.93% # Bytes accessed per row activation
system.mem_ctrls0.bytesPerActivate::384-511         2369      2.18%     97.11% # Bytes accessed per row activation
system.mem_ctrls0.bytesPerActivate::512-639         1548      1.42%     98.53% # Bytes accessed per row activation
system.mem_ctrls0.bytesPerActivate::640-767         1094      1.01%     99.54% # Bytes accessed per row activation
system.mem_ctrls0.bytesPerActivate::768-895          184      0.17%     99.71% # Bytes accessed per row activation
system.mem_ctrls0.bytesPerActivate::896-1023          169      0.16%     99.86% # Bytes accessed per row activation
system.mem_ctrls0.bytesPerActivate::1024-1151          151      0.14%    100.00% # Bytes accessed per row activation
system.mem_ctrls0.bytesPerActivate::total       108742                       # Bytes accessed per row activation
system.mem_ctrls0.rdPerTurnAround::samples         1335                       # Reads before turning the bus around for writes
system.mem_ctrls0.rdPerTurnAround::mean    125.904120                       # Reads before turning the bus around for writes
system.mem_ctrls0.rdPerTurnAround::gmean    46.962764                       # Reads before turning the bus around for writes
system.mem_ctrls0.rdPerTurnAround::stdev  1696.563237                       # Reads before turning the bus around for writes
system.mem_ctrls0.rdPerTurnAround::0-2047         1332     99.78%     99.78% # Reads before turning the bus around for writes
system.mem_ctrls0.rdPerTurnAround::2048-4095            1      0.07%     99.85% # Reads before turning the bus around for writes
system.mem_ctrls0.rdPerTurnAround::4096-6143            1      0.07%     99.93% # Reads before turning the bus around for writes
system.mem_ctrls0.rdPerTurnAround::61440-63487            1      0.07%    100.00% # Reads before turning the bus around for writes
system.mem_ctrls0.rdPerTurnAround::total         1335                       # Reads before turning the bus around for writes
system.mem_ctrls0.wrPerTurnAround::samples         1335                       # Writes before turning the bus around for reads
system.mem_ctrls0.wrPerTurnAround::mean     16.554307                       # Writes before turning the bus around for reads
system.mem_ctrls0.wrPerTurnAround::gmean    16.531282                       # Writes before turning the bus around for reads
system.mem_ctrls0.wrPerTurnAround::stdev     0.889643                       # Writes before turning the bus around for reads
system.mem_ctrls0.wrPerTurnAround::16             946     70.86%     70.86% # Writes before turning the bus around for reads
system.mem_ctrls0.wrPerTurnAround::17              49      3.67%     74.53% # Writes before turning the bus around for reads
system.mem_ctrls0.wrPerTurnAround::18             330     24.72%     99.25% # Writes before turning the bus around for reads
system.mem_ctrls0.wrPerTurnAround::19               9      0.67%     99.93% # Writes before turning the bus around for reads
system.mem_ctrls0.wrPerTurnAround::20               1      0.07%    100.00% # Writes before turning the bus around for reads
system.mem_ctrls0.wrPerTurnAround::total         1335                       # Writes before turning the bus around for reads
system.mem_ctrls0.totQLat                  4860374750                       # Total ticks spent queuing
system.mem_ctrls0.totMemAccLat             8012249750                       # Total ticks spent from burst creation until serviced by the DRAM
system.mem_ctrls0.totBusLat                 840500000                       # Total ticks spent in databus transfers
system.mem_ctrls0.avgQLat                    28913.59                       # Average queueing delay per DRAM burst
system.mem_ctrls0.avgBusLat                   5000.00                       # Average bus latency per DRAM burst
system.mem_ctrls0.avgMemAccLat               47663.59                       # Average memory access latency per DRAM burst
system.mem_ctrls0.avgRdBW                      671.38                       # Average DRAM read bandwidth in MiByte/s
system.mem_ctrls0.avgWrBW                       88.27                       # Average achieved write bandwidth in MiByte/s
system.mem_ctrls0.avgRdBWSys                   671.39                       # Average system read bandwidth in MiByte/s
system.mem_ctrls0.avgWrBWSys                    88.37                       # Average system write bandwidth in MiByte/s
system.mem_ctrls0.peakBW                     12800.00                       # Theoretical peak bandwidth in MiByte/s
system.mem_ctrls0.busUtil                        5.93                       # Data bus utilization in percentage
system.mem_ctrls0.busUtilRead                    5.25                       # Data bus utilization in percentage for reads
system.mem_ctrls0.busUtilWrite                   0.69                       # Data bus utilization in percentage for writes
system.mem_ctrls0.avgRdQLen                      1.57                       # Average read queue length when enqueuing
system.mem_ctrls0.avgWrQLen                     13.61                       # Average write queue length when enqueuing
system.mem_ctrls0.readRowHits                   77018                       # Number of row buffer hits during reads
system.mem_ctrls0.writeRowHits                   4433                       # Number of row buffer hits during writes
system.mem_ctrls0.readRowHitRate                45.82                       # Row buffer hit rate for reads
system.mem_ctrls0.writeRowHitRate               20.03                       # Row buffer hit rate for writes
system.mem_ctrls0.avgGap                     84230.92                       # Average gap between requests
system.mem_ctrls0.pageHitRate                   42.82                       # Row buffer hit rate, read and write combined
system.mem_ctrls0_0.actEnergy               365560860                       # Energy for activate commands per rank (pJ)
system.mem_ctrls0_0.preEnergy               194288820                       # Energy for precharge commands per rank (pJ)
system.mem_ctrls0_0.readEnergy              577076220                       # Energy for read commands per rank (pJ)
system.mem_ctrls0_0.writeEnergy              52132140                       # Energy for write commands per rank (pJ)
system.mem_ctrls0_0.refreshEnergy        1239114240.000000                       # Energy for refresh commands per rank (pJ)
system.mem_ctrls0_0.actBackEnergy          1509633600                       # Energy for active background per rank (pJ)
system.mem_ctrls0_0.preBackEnergy            32822880                       # Energy for precharge background per rank (pJ)
system.mem_ctrls0_0.actPowerDownEnergy     5176079370                       # Energy for active power-down per rank (pJ)
system.mem_ctrls0_0.prePowerDownEnergy      294567840                       # Energy for precharge power-down per rank (pJ)
system.mem_ctrls0_0.selfRefreshEnergy       136853550                       # Energy for self refresh per rank (pJ)
system.mem_ctrls0_0.totalEnergy            9578262630                       # Total energy per rank (pJ)
system.mem_ctrls0_0.averagePower           597.730436                       # Core power per rank (mW)
system.mem_ctrls0_0.totalIdleTime         12627459750                       # Total Idle time Per DRAM Rank
system.mem_ctrls0_0.memoryStateTime::IDLE     17616750                       # Time in different power states
system.mem_ctrls0_0.memoryStateTime::REF    524388000                       # Time in different power states
system.mem_ctrls0_0.memoryStateTime::SREF    509853000                       # Time in different power states
system.mem_ctrls0_0.memoryStateTime::PRE_PDN    767181000                       # Time in different power states
system.mem_ctrls0_0.memoryStateTime::ACT   2853906250                       # Time in different power states
system.mem_ctrls0_0.memoryStateTime::ACT_PDN  11351440000                       # Time in different power states
system.mem_ctrls0_1.actEnergy               410907000                       # Energy for activate commands per rank (pJ)
system.mem_ctrls0_1.preEnergy               218387070                       # Energy for precharge commands per rank (pJ)
system.mem_ctrls0_1.readEnergy              623157780                       # Energy for read commands per rank (pJ)
system.mem_ctrls0_1.writeEnergy              63229860                       # Energy for write commands per rank (pJ)
system.mem_ctrls0_1.refreshEnergy        1223133600.000000                       # Energy for refresh commands per rank (pJ)
system.mem_ctrls0_1.actBackEnergy          1626733830                       # Energy for active background per rank (pJ)
system.mem_ctrls0_1.preBackEnergy            31571520                       # Energy for precharge background per rank (pJ)
system.mem_ctrls0_1.actPowerDownEnergy     5041718400                       # Energy for active power-down per rank (pJ)
system.mem_ctrls0_1.prePowerDownEnergy      241173600                       # Energy for precharge power-down per rank (pJ)
system.mem_ctrls0_1.selfRefreshEnergy       178376520                       # Energy for self refresh per rank (pJ)
system.mem_ctrls0_1.totalEnergy            9658389180                       # Total energy per rank (pJ)
system.mem_ctrls0_1.averagePower           602.730724                       # Core power per rank (mW)
system.mem_ctrls0_1.totalIdleTime         12373712750                       # Total Idle time Per DRAM Rank
system.mem_ctrls0_1.memoryStateTime::IDLE     16734000                       # Time in different power states
system.mem_ctrls0_1.memoryStateTime::REF    517574000                       # Time in different power states
system.mem_ctrls0_1.memoryStateTime::SREF    690314250                       # Time in different power states
system.mem_ctrls0_1.memoryStateTime::PRE_PDN    627872750                       # Time in different power states
system.mem_ctrls0_1.memoryStateTime::ACT   3114640500                       # Time in different power states
system.mem_ctrls0_1.memoryStateTime::ACT_PDN  11057249500                       # Time in different power states
system.mem_ctrls1.pwrStateResidencyTicks::UNDEFINED  16024385000                       # Cumulative time (in ticks) in various power states
system.mem_ctrls1.bytes_read::ruby.dir_cntrl1     10720832                       # Number of bytes read from this memory
system.mem_ctrls1.bytes_read::total          10720832                       # Number of bytes read from this memory
system.mem_ctrls1.bytes_written::ruby.dir_cntrl1      1404800                       # Number of bytes written to this memory
system.mem_ctrls1.bytes_written::total        1404800                       # Number of bytes written to this memory
system.mem_ctrls1.num_reads::ruby.dir_cntrl1       167513                       # Number of read requests responded to by this memory
system.mem_ctrls1.num_reads::total             167513                       # Number of read requests responded to by this memory
system.mem_ctrls1.num_writes::ruby.dir_cntrl1        21950                       # Number of write requests responded to by this memory
system.mem_ctrls1.num_writes::total             21950                       # Number of write requests responded to by this memory
system.mem_ctrls1.bw_read::ruby.dir_cntrl1    669032353                       # Total read bandwidth from this memory (bytes/s)
system.mem_ctrls1.bw_read::total            669032353                       # Total read bandwidth from this memory (bytes/s)
system.mem_ctrls1.bw_write::ruby.dir_cntrl1     87666391                       # Write bandwidth from this memory (bytes/s)
system.mem_ctrls1.bw_write::total            87666391                       # Write bandwidth from this memory (bytes/s)
system.mem_ctrls1.bw_total::ruby.dir_cntrl1    756698744                       # Total bandwidth to/from this memory (bytes/s)
system.mem_ctrls1.bw_total::total           756698744                       # Total bandwidth to/from this memory (bytes/s)
system.mem_ctrls1.readReqs                     167513                       # Number of read requests accepted
system.mem_ctrls1.avgNetLat                      0.00                       # Average network latency to DRAM controller
system.mem_ctrls1.writeReqs                     21950                       # Number of write requests accepted
system.mem_ctrls1.readBursts                   167513                       # Number of DRAM read bursts, including those serviced by the write queue
system.mem_ctrls1.writeBursts                   21950                       # Number of DRAM write bursts, including those merged in the write queue
system.mem_ctrls1.bytesReadDRAM              10720448                       # Total number of bytes read from DRAM
system.mem_ctrls1.bytesReadWrQ                    384                       # Total number of bytes read from write queue
system.mem_ctrls1.bytesWritten                1403456                       # Total number of bytes written to DRAM
system.mem_ctrls1.bytesReadSys               10720832                       # Total read bytes from the system interface side
system.mem_ctrls1.bytesWrittenSys             1404800                       # Total written bytes from the system interface side
system.mem_ctrls1.servicedByWrQ                     6                       # Number of DRAM read bursts serviced by the write queue
system.mem_ctrls1.mergedWrBursts                    0                       # Number of DRAM write bursts merged with an existing one
system.mem_ctrls1.neitherReadNorWriteReqs            0                       # Number of requests that are neither read nor write
system.mem_ctrls1.perBankRdBursts::0            10493                       # Per bank write bursts
system.mem_ctrls1.perBankRdBursts::1            10609                       # Per bank write bursts
system.mem_ctrls1.perBankRdBursts::2            10217                       # Per bank write bursts
system.mem_ctrls1.perBankRdBursts::3            10292                       # Per bank write bursts
system.mem_ctrls1.perBankRdBursts::4             9627                       # Per bank write bursts
system.mem_ctrls1.perBankRdBursts::5             9593                       # Per bank write bursts
system.mem_ctrls1.perBankRdBursts::6             9698                       # Per bank write bursts
system.mem_ctrls1.perBankRdBursts::7             9898                       # Per bank write bursts
system.mem_ctrls1.perBankRdBursts::8            10022                       # Per bank write bursts
system.mem_ctrls1.perBankRdBursts::9            10137                       # Per bank write bursts
system.mem_ctrls1.perBankRdBursts::10           11040                       # Per bank write bursts
system.mem_ctrls1.perBankRdBursts::11           11081                       # Per bank write bursts
system.mem_ctrls1.perBankRdBursts::12           11575                       # Per bank write bursts
system.mem_ctrls1.perBankRdBursts::13           11718                       # Per bank write bursts
system.mem_ctrls1.perBankRdBursts::14           10946                       # Per bank write bursts
system.mem_ctrls1.perBankRdBursts::15           10561                       # Per bank write bursts
system.mem_ctrls1.perBankWrBursts::0             1322                       # Per bank write bursts
system.mem_ctrls1.perBankWrBursts::1             1344                       # Per bank write bursts
system.mem_ctrls1.perBankWrBursts::2             1299                       # Per bank write bursts
system.mem_ctrls1.perBankWrBursts::3             1325                       # Per bank write bursts
system.mem_ctrls1.perBankWrBursts::4             1181                       # Per bank write bursts
system.mem_ctrls1.perBankWrBursts::5             1080                       # Per bank write bursts
system.mem_ctrls1.perBankWrBursts::6             1132                       # Per bank write bursts
system.mem_ctrls1.perBankWrBursts::7             1218                       # Per bank write bursts
system.mem_ctrls1.perBankWrBursts::8             1265                       # Per bank write bursts
system.mem_ctrls1.perBankWrBursts::9             1345                       # Per bank write bursts
system.mem_ctrls1.perBankWrBursts::10            1562                       # Per bank write bursts
system.mem_ctrls1.perBankWrBursts::11            1561                       # Per bank write bursts
system.mem_ctrls1.perBankWrBursts::12            1711                       # Per bank write bursts
system.mem_ctrls1.perBankWrBursts::13            1720                       # Per bank write bursts
system.mem_ctrls1.perBankWrBursts::14            1502                       # Per bank write bursts
system.mem_ctrls1.perBankWrBursts::15            1362                       # Per bank write bursts
system.mem_ctrls1.numRdRetry                        0                       # Number of times read queue was full causing retry
system.mem_ctrls1.numWrRetry                        0                       # Number of times write queue was full causing retry
system.mem_ctrls1.totGap                  16023802000                       # Total gap between requests
system.mem_ctrls1.readPktSize::0                    0                       # Read request sizes (log2)
system.mem_ctrls1.readPktSize::1                    0                       # Read request sizes (log2)
system.mem_ctrls1.readPktSize::2                    0                       # Read request sizes (log2)
system.mem_ctrls1.readPktSize::3                    0                       # Read request sizes (log2)
system.mem_ctrls1.readPktSize::4                    0                       # Read request sizes (log2)
system.mem_ctrls1.readPktSize::5                    0                       # Read request sizes (log2)
system.mem_ctrls1.readPktSize::6               167513                       # Read request sizes (log2)
system.mem_ctrls1.writePktSize::0                   0                       # Write request sizes (log2)
system.mem_ctrls1.writePktSize::1                   0                       # Write request sizes (log2)
system.mem_ctrls1.writePktSize::2                   0                       # Write request sizes (log2)
system.mem_ctrls1.writePktSize::3                   0                       # Write request sizes (log2)
system.mem_ctrls1.writePktSize::4                   0                       # Write request sizes (log2)
system.mem_ctrls1.writePktSize::5                   0                       # Write request sizes (log2)
system.mem_ctrls1.writePktSize::6               21950                       # Write request sizes (log2)
system.mem_ctrls1.rdQLenPdf::0                  82166                       # What read queue length does an incoming req see
system.mem_ctrls1.rdQLenPdf::1                  45527                       # What read queue length does an incoming req see
system.mem_ctrls1.rdQLenPdf::2                  22653                       # What read queue length does an incoming req see
system.mem_ctrls1.rdQLenPdf::3                  10404                       # What read queue length does an incoming req see
system.mem_ctrls1.rdQLenPdf::4                   4310                       # What read queue length does an incoming req see
system.mem_ctrls1.rdQLenPdf::5                   1619                       # What read queue length does an incoming req see
system.mem_ctrls1.rdQLenPdf::6                    569                       # What read queue length does an incoming req see
system.mem_ctrls1.rdQLenPdf::7                    171                       # What read queue length does an incoming req see
system.mem_ctrls1.rdQLenPdf::8                     63                       # What read queue length does an incoming req see
system.mem_ctrls1.rdQLenPdf::9                     20                       # What read queue length does an incoming req see
system.mem_ctrls1.rdQLenPdf::10                     5                       # What read queue length does an incoming req see
system.mem_ctrls1.rdQLenPdf::11                     0                       # What read queue length does an incoming req see
system.mem_ctrls1.rdQLenPdf::12                     0                       # What read queue length does an incoming req see
system.mem_ctrls1.rdQLenPdf::13                     0                       # What read queue length does an incoming req see
system.mem_ctrls1.rdQLenPdf::14                     0                       # What read queue length does an incoming req see
system.mem_ctrls1.rdQLenPdf::15                     0                       # What read queue length does an incoming req see
system.mem_ctrls1.rdQLenPdf::16                     0                       # What read queue length does an incoming req see
system.mem_ctrls1.rdQLenPdf::17                     0                       # What read queue length does an incoming req see
system.mem_ctrls1.rdQLenPdf::18                     0                       # What read queue length does an incoming req see
system.mem_ctrls1.rdQLenPdf::19                     0                       # What read queue length does an incoming req see
system.mem_ctrls1.rdQLenPdf::20                     0                       # What read queue length does an incoming req see
system.mem_ctrls1.rdQLenPdf::21                     0                       # What read queue length does an incoming req see
system.mem_ctrls1.rdQLenPdf::22                     0                       # What read queue length does an incoming req see
system.mem_ctrls1.rdQLenPdf::23                     0                       # What read queue length does an incoming req see
system.mem_ctrls1.rdQLenPdf::24                     0                       # What read queue length does an incoming req see
system.mem_ctrls1.rdQLenPdf::25                     0                       # What read queue length does an incoming req see
system.mem_ctrls1.rdQLenPdf::26                     0                       # What read queue length does an incoming req see
system.mem_ctrls1.rdQLenPdf::27                     0                       # What read queue length does an incoming req see
system.mem_ctrls1.rdQLenPdf::28                     0                       # What read queue length does an incoming req see
system.mem_ctrls1.rdQLenPdf::29                     0                       # What read queue length does an incoming req see
system.mem_ctrls1.rdQLenPdf::30                     0                       # What read queue length does an incoming req see
system.mem_ctrls1.rdQLenPdf::31                     0                       # What read queue length does an incoming req see
system.mem_ctrls1.wrQLenPdf::0                      1                       # What write queue length does an incoming req see
system.mem_ctrls1.wrQLenPdf::1                      1                       # What write queue length does an incoming req see
system.mem_ctrls1.wrQLenPdf::2                      1                       # What write queue length does an incoming req see
system.mem_ctrls1.wrQLenPdf::3                      1                       # What write queue length does an incoming req see
system.mem_ctrls1.wrQLenPdf::4                      1                       # What write queue length does an incoming req see
system.mem_ctrls1.wrQLenPdf::5                      1                       # What write queue length does an incoming req see
system.mem_ctrls1.wrQLenPdf::6                      1                       # What write queue length does an incoming req see
system.mem_ctrls1.wrQLenPdf::7                      1                       # What write queue length does an incoming req see
system.mem_ctrls1.wrQLenPdf::8                      1                       # What write queue length does an incoming req see
system.mem_ctrls1.wrQLenPdf::9                      1                       # What write queue length does an incoming req see
system.mem_ctrls1.wrQLenPdf::10                     1                       # What write queue length does an incoming req see
system.mem_ctrls1.wrQLenPdf::11                     1                       # What write queue length does an incoming req see
system.mem_ctrls1.wrQLenPdf::12                     1                       # What write queue length does an incoming req see
system.mem_ctrls1.wrQLenPdf::13                     1                       # What write queue length does an incoming req see
system.mem_ctrls1.wrQLenPdf::14                     1                       # What write queue length does an incoming req see
system.mem_ctrls1.wrQLenPdf::15                   315                       # What write queue length does an incoming req see
system.mem_ctrls1.wrQLenPdf::16                   381                       # What write queue length does an incoming req see
system.mem_ctrls1.wrQLenPdf::17                   795                       # What write queue length does an incoming req see
system.mem_ctrls1.wrQLenPdf::18                  1231                       # What write queue length does an incoming req see
system.mem_ctrls1.wrQLenPdf::19                  1362                       # What write queue length does an incoming req see
system.mem_ctrls1.wrQLenPdf::20                  1375                       # What write queue length does an incoming req see
system.mem_ctrls1.wrQLenPdf::21                  1386                       # What write queue length does an incoming req see
system.mem_ctrls1.wrQLenPdf::22                  1367                       # What write queue length does an incoming req see
system.mem_ctrls1.wrQLenPdf::23                  1366                       # What write queue length does an incoming req see
system.mem_ctrls1.wrQLenPdf::24                  1384                       # What write queue length does an incoming req see
system.mem_ctrls1.wrQLenPdf::25                  1364                       # What write queue length does an incoming req see
system.mem_ctrls1.wrQLenPdf::26                  1368                       # What write queue length does an incoming req see
system.mem_ctrls1.wrQLenPdf::27                  1362                       # What write queue length does an incoming req see
system.mem_ctrls1.wrQLenPdf::28                  1370                       # What write queue length does an incoming req see
system.mem_ctrls1.wrQLenPdf::29                  1356                       # What write queue length does an incoming req see
system.mem_ctrls1.wrQLenPdf::30                  1356                       # What write queue length does an incoming req see
system.mem_ctrls1.wrQLenPdf::31                  1363                       # What write queue length does an incoming req see
system.mem_ctrls1.wrQLenPdf::32                  1350                       # What write queue length does an incoming req see
system.mem_ctrls1.wrQLenPdf::33                    68                       # What write queue length does an incoming req see
system.mem_ctrls1.wrQLenPdf::34                    13                       # What write queue length does an incoming req see
system.mem_ctrls1.wrQLenPdf::35                     3                       # What write queue length does an incoming req see
system.mem_ctrls1.wrQLenPdf::36                     0                       # What write queue length does an incoming req see
system.mem_ctrls1.wrQLenPdf::37                     0                       # What write queue length does an incoming req see
system.mem_ctrls1.wrQLenPdf::38                     0                       # What write queue length does an incoming req see
system.mem_ctrls1.wrQLenPdf::39                     0                       # What write queue length does an incoming req see
system.mem_ctrls1.wrQLenPdf::40                     0                       # What write queue length does an incoming req see
system.mem_ctrls1.wrQLenPdf::41                     0                       # What write queue length does an incoming req see
system.mem_ctrls1.wrQLenPdf::42                     0                       # What write queue length does an incoming req see
system.mem_ctrls1.wrQLenPdf::43                     0                       # What write queue length does an incoming req see
system.mem_ctrls1.wrQLenPdf::44                     0                       # What write queue length does an incoming req see
system.mem_ctrls1.wrQLenPdf::45                     0                       # What write queue length does an incoming req see
system.mem_ctrls1.wrQLenPdf::46                     0                       # What write queue length does an incoming req see
system.mem_ctrls1.wrQLenPdf::47                     0                       # What write queue length does an incoming req see
system.mem_ctrls1.wrQLenPdf::48                     0                       # What write queue length does an incoming req see
system.mem_ctrls1.wrQLenPdf::49                     0                       # What write queue length does an incoming req see
system.mem_ctrls1.wrQLenPdf::50                     0                       # What write queue length does an incoming req see
system.mem_ctrls1.wrQLenPdf::51                     0                       # What write queue length does an incoming req see
system.mem_ctrls1.wrQLenPdf::52                     0                       # What write queue length does an incoming req see
system.mem_ctrls1.wrQLenPdf::53                     0                       # What write queue length does an incoming req see
system.mem_ctrls1.wrQLenPdf::54                     0                       # What write queue length does an incoming req see
system.mem_ctrls1.wrQLenPdf::55                     0                       # What write queue length does an incoming req see
system.mem_ctrls1.wrQLenPdf::56                     0                       # What write queue length does an incoming req see
system.mem_ctrls1.wrQLenPdf::57                     0                       # What write queue length does an incoming req see
system.mem_ctrls1.wrQLenPdf::58                     0                       # What write queue length does an incoming req see
system.mem_ctrls1.wrQLenPdf::59                     0                       # What write queue length does an incoming req see
system.mem_ctrls1.wrQLenPdf::60                     0                       # What write queue length does an incoming req see
system.mem_ctrls1.wrQLenPdf::61                     0                       # What write queue length does an incoming req see
system.mem_ctrls1.wrQLenPdf::62                     0                       # What write queue length does an incoming req see
system.mem_ctrls1.wrQLenPdf::63                     0                       # What write queue length does an incoming req see
system.mem_ctrls1.bytesPerActivate::samples       107564                       # Bytes accessed per row activation
system.mem_ctrls1.bytesPerActivate::mean   112.705664                       # Bytes accessed per row activation
system.mem_ctrls1.bytesPerActivate::gmean    88.691655                       # Bytes accessed per row activation
system.mem_ctrls1.bytesPerActivate::stdev   116.698587                       # Bytes accessed per row activation
system.mem_ctrls1.bytesPerActivate::0-127        75160     69.87%     69.87% # Bytes accessed per row activation
system.mem_ctrls1.bytesPerActivate::128-255        22134     20.58%     90.45% # Bytes accessed per row activation
system.mem_ctrls1.bytesPerActivate::256-383         4671      4.34%     94.79% # Bytes accessed per row activation
system.mem_ctrls1.bytesPerActivate::384-511         2441      2.27%     97.06% # Bytes accessed per row activation
system.mem_ctrls1.bytesPerActivate::512-639         1529      1.42%     98.49% # Bytes accessed per row activation
system.mem_ctrls1.bytesPerActivate::640-767         1112      1.03%     99.52% # Bytes accessed per row activation
system.mem_ctrls1.bytesPerActivate::768-895          209      0.19%     99.71% # Bytes accessed per row activation
system.mem_ctrls1.bytesPerActivate::896-1023          132      0.12%     99.84% # Bytes accessed per row activation
system.mem_ctrls1.bytesPerActivate::1024-1151          176      0.16%    100.00% # Bytes accessed per row activation
system.mem_ctrls1.bytesPerActivate::total       107564                       # Bytes accessed per row activation
system.mem_ctrls1.rdPerTurnAround::samples         1325                       # Reads before turning the bus around for writes
system.mem_ctrls1.rdPerTurnAround::mean    126.413585                       # Reads before turning the bus around for writes
system.mem_ctrls1.rdPerTurnAround::gmean    46.713213                       # Reads before turning the bus around for writes
system.mem_ctrls1.rdPerTurnAround::stdev  1783.467572                       # Reads before turning the bus around for writes
system.mem_ctrls1.rdPerTurnAround::0-2047         1322     99.77%     99.77% # Reads before turning the bus around for writes
system.mem_ctrls1.rdPerTurnAround::2048-4095            2      0.15%     99.92% # Reads before turning the bus around for writes
system.mem_ctrls1.rdPerTurnAround::63488-65535            1      0.08%    100.00% # Reads before turning the bus around for writes
system.mem_ctrls1.rdPerTurnAround::total         1325                       # Reads before turning the bus around for writes
system.mem_ctrls1.wrPerTurnAround::samples         1325                       # Writes before turning the bus around for reads
system.mem_ctrls1.wrPerTurnAround::mean     16.550189                       # Writes before turning the bus around for reads
system.mem_ctrls1.wrPerTurnAround::gmean    16.526743                       # Writes before turning the bus around for reads
system.mem_ctrls1.wrPerTurnAround::stdev     0.898939                       # Writes before turning the bus around for reads
system.mem_ctrls1.wrPerTurnAround::16             946     71.40%     71.40% # Writes before turning the bus around for reads
system.mem_ctrls1.wrPerTurnAround::17              47      3.55%     74.94% # Writes before turning the bus around for reads
system.mem_ctrls1.wrPerTurnAround::18             317     23.92%     98.87% # Writes before turning the bus around for reads
system.mem_ctrls1.wrPerTurnAround::19              12      0.91%     99.77% # Writes before turning the bus around for reads
system.mem_ctrls1.wrPerTurnAround::20               3      0.23%    100.00% # Writes before turning the bus around for reads
system.mem_ctrls1.wrPerTurnAround::total         1325                       # Writes before turning the bus around for reads
system.mem_ctrls1.totQLat                  4870291250                       # Total ticks spent queuing
system.mem_ctrls1.totMemAccLat             8011047500                       # Total ticks spent from burst creation until serviced by the DRAM
system.mem_ctrls1.totBusLat                 837535000                       # Total ticks spent in databus transfers
system.mem_ctrls1.avgQLat                    29075.15                       # Average queueing delay per DRAM burst
system.mem_ctrls1.avgBusLat                   5000.00                       # Average bus latency per DRAM burst
system.mem_ctrls1.avgMemAccLat               47825.15                       # Average memory access latency per DRAM burst
system.mem_ctrls1.avgRdBW                      669.01                       # Average DRAM read bandwidth in MiByte/s
system.mem_ctrls1.avgWrBW                       87.58                       # Average achieved write bandwidth in MiByte/s
system.mem_ctrls1.avgRdBWSys                   669.03                       # Average system read bandwidth in MiByte/s
system.mem_ctrls1.avgWrBWSys                    87.67                       # Average system write bandwidth in MiByte/s
system.mem_ctrls1.peakBW                     12800.00                       # Theoretical peak bandwidth in MiByte/s
system.mem_ctrls1.busUtil                        5.91                       # Data bus utilization in percentage
system.mem_ctrls1.busUtilRead                    5.23                       # Data bus utilization in percentage for reads
system.mem_ctrls1.busUtilWrite                   0.68                       # Data bus utilization in percentage for writes
system.mem_ctrls1.avgRdQLen                      1.57                       # Average read queue length when enqueuing
system.mem_ctrls1.avgWrQLen                     13.24                       # Average write queue length when enqueuing
system.mem_ctrls1.readRowHits                   77378                       # Number of row buffer hits during reads
system.mem_ctrls1.writeRowHits                   4485                       # Number of row buffer hits during writes
system.mem_ctrls1.readRowHitRate                46.19                       # Row buffer hit rate for reads
system.mem_ctrls1.writeRowHitRate               20.43                       # Row buffer hit rate for writes
system.mem_ctrls1.avgGap                     84574.84                       # Average gap between requests
system.mem_ctrls1.pageHitRate                   43.21                       # Row buffer hit rate, read and write combined
system.mem_ctrls1_0.actEnergy               361155480                       # Energy for activate commands per rank (pJ)
system.mem_ctrls1_0.preEnergy               191943510                       # Energy for precharge commands per rank (pJ)
system.mem_ctrls1_0.readEnergy              574248780                       # Energy for read commands per rank (pJ)
system.mem_ctrls1_0.writeEnergy              51683220                       # Energy for write commands per rank (pJ)
system.mem_ctrls1_0.refreshEnergy        1247104560.000000                       # Energy for refresh commands per rank (pJ)
system.mem_ctrls1_0.actBackEnergy          1510051980                       # Energy for active background per rank (pJ)
system.mem_ctrls1_0.preBackEnergy            34180800                       # Energy for precharge background per rank (pJ)
system.mem_ctrls1_0.actPowerDownEnergy     5203768830                       # Energy for active power-down per rank (pJ)
system.mem_ctrls1_0.prePowerDownEnergy      282816480                       # Energy for precharge power-down per rank (pJ)
system.mem_ctrls1_0.selfRefreshEnergy       133526010                       # Energy for self refresh per rank (pJ)
system.mem_ctrls1_0.totalEnergy            9590680590                       # Total energy per rank (pJ)
system.mem_ctrls1_0.averagePower           598.505377                       # Core power per rank (mW)
system.mem_ctrls1_0.totalIdleTime         12623492750                       # Total Idle time Per DRAM Rank
system.mem_ctrls1_0.memoryStateTime::IDLE     20136250                       # Time in different power states
system.mem_ctrls1_0.memoryStateTime::REF    527804000                       # Time in different power states
system.mem_ctrls1_0.memoryStateTime::SREF    475134500                       # Time in different power states
system.mem_ctrls1_0.memoryStateTime::PRE_PDN    736587000                       # Time in different power states
system.mem_ctrls1_0.memoryStateTime::ACT   2852805500                       # Time in different power states
system.mem_ctrls1_0.memoryStateTime::ACT_PDN  11411917750                       # Time in different power states
system.mem_ctrls1_1.actEnergy               406915740                       # Energy for activate commands per rank (pJ)
system.mem_ctrls1_1.preEnergy               216261870                       # Energy for precharge commands per rank (pJ)
system.mem_ctrls1_1.readEnergy              621751200                       # Energy for read commands per rank (pJ)
system.mem_ctrls1_1.writeEnergy              62786160                       # Energy for write commands per rank (pJ)
system.mem_ctrls1_1.refreshEnergy        1229280000.000000                       # Energy for refresh commands per rank (pJ)
system.mem_ctrls1_1.actBackEnergy          1613128500                       # Energy for active background per rank (pJ)
system.mem_ctrls1_1.preBackEnergy            32714880                       # Energy for precharge background per rank (pJ)
system.mem_ctrls1_1.actPowerDownEnergy     5049125550                       # Energy for active power-down per rank (pJ)
system.mem_ctrls1_1.prePowerDownEnergy      244044480                       # Energy for precharge power-down per rank (pJ)
system.mem_ctrls1_1.selfRefreshEnergy       185321280                       # Energy for self refresh per rank (pJ)
system.mem_ctrls1_1.totalEnergy            9661612980                       # Total energy per rank (pJ)
system.mem_ctrls1_1.averagePower           602.931905                       # Core power per rank (mW)
system.mem_ctrls1_1.totalIdleTime         12399793000                       # Total Idle time Per DRAM Rank
system.mem_ctrls1_1.memoryStateTime::IDLE     20230500                       # Time in different power states
system.mem_ctrls1_1.memoryStateTime::REF    520234000                       # Time in different power states
system.mem_ctrls1_1.memoryStateTime::SREF    692820000                       # Time in different power states
system.mem_ctrls1_1.memoryStateTime::PRE_PDN    635339750                       # Time in different power states
system.mem_ctrls1_1.memoryStateTime::ACT   3082515750                       # Time in different power states
system.mem_ctrls1_1.memoryStateTime::ACT_PDN  11073245000                       # Time in different power states
system.mem_ctrls2.pwrStateResidencyTicks::UNDEFINED  16024385000                       # Cumulative time (in ticks) in various power states
system.mem_ctrls2.bytes_read::ruby.dir_cntrl2     10741696                       # Number of bytes read from this memory
system.mem_ctrls2.bytes_read::total          10741696                       # Number of bytes read from this memory
system.mem_ctrls2.bytes_written::ruby.dir_cntrl2      1418816                       # Number of bytes written to this memory
system.mem_ctrls2.bytes_written::total        1418816                       # Number of bytes written to this memory
system.mem_ctrls2.num_reads::ruby.dir_cntrl2       167839                       # Number of read requests responded to by this memory
system.mem_ctrls2.num_reads::total             167839                       # Number of read requests responded to by this memory
system.mem_ctrls2.num_writes::ruby.dir_cntrl2        22169                       # Number of write requests responded to by this memory
system.mem_ctrls2.num_writes::total             22169                       # Number of write requests responded to by this memory
system.mem_ctrls2.bw_read::ruby.dir_cntrl2    670334369                       # Total read bandwidth from this memory (bytes/s)
system.mem_ctrls2.bw_read::total            670334369                       # Total read bandwidth from this memory (bytes/s)
system.mem_ctrls2.bw_write::ruby.dir_cntrl2     88541058                       # Write bandwidth from this memory (bytes/s)
system.mem_ctrls2.bw_write::total            88541058                       # Write bandwidth from this memory (bytes/s)
system.mem_ctrls2.bw_total::ruby.dir_cntrl2    758875426                       # Total bandwidth to/from this memory (bytes/s)
system.mem_ctrls2.bw_total::total           758875426                       # Total bandwidth to/from this memory (bytes/s)
system.mem_ctrls2.readReqs                     167839                       # Number of read requests accepted
system.mem_ctrls2.avgNetLat                      0.00                       # Average network latency to DRAM controller
system.mem_ctrls2.writeReqs                     22169                       # Number of write requests accepted
system.mem_ctrls2.readBursts                   167839                       # Number of DRAM read bursts, including those serviced by the write queue
system.mem_ctrls2.writeBursts                   22169                       # Number of DRAM write bursts, including those merged in the write queue
system.mem_ctrls2.bytesReadDRAM              10741312                       # Total number of bytes read from DRAM
system.mem_ctrls2.bytesReadWrQ                    384                       # Total number of bytes read from write queue
system.mem_ctrls2.bytesWritten                1417600                       # Total number of bytes written to DRAM
system.mem_ctrls2.bytesReadSys               10741696                       # Total read bytes from the system interface side
system.mem_ctrls2.bytesWrittenSys             1418816                       # Total written bytes from the system interface side
system.mem_ctrls2.servicedByWrQ                     6                       # Number of DRAM read bursts serviced by the write queue
system.mem_ctrls2.mergedWrBursts                    0                       # Number of DRAM write bursts merged with an existing one
system.mem_ctrls2.neitherReadNorWriteReqs            0                       # Number of requests that are neither read nor write
system.mem_ctrls2.perBankRdBursts::0            10521                       # Per bank write bursts
system.mem_ctrls2.perBankRdBursts::1            10575                       # Per bank write bursts
system.mem_ctrls2.perBankRdBursts::2            10226                       # Per bank write bursts
system.mem_ctrls2.perBankRdBursts::3            10274                       # Per bank write bursts
system.mem_ctrls2.perBankRdBursts::4             9655                       # Per bank write bursts
system.mem_ctrls2.perBankRdBursts::5             9586                       # Per bank write bursts
system.mem_ctrls2.perBankRdBursts::6             9667                       # Per bank write bursts
system.mem_ctrls2.perBankRdBursts::7             9953                       # Per bank write bursts
system.mem_ctrls2.perBankRdBursts::8            10043                       # Per bank write bursts
system.mem_ctrls2.perBankRdBursts::9            10146                       # Per bank write bursts
system.mem_ctrls2.perBankRdBursts::10           11036                       # Per bank write bursts
system.mem_ctrls2.perBankRdBursts::11           11079                       # Per bank write bursts
system.mem_ctrls2.perBankRdBursts::12           11631                       # Per bank write bursts
system.mem_ctrls2.perBankRdBursts::13           11798                       # Per bank write bursts
system.mem_ctrls2.perBankRdBursts::14           11092                       # Per bank write bursts
system.mem_ctrls2.perBankRdBursts::15           10551                       # Per bank write bursts
system.mem_ctrls2.perBankWrBursts::0             1366                       # Per bank write bursts
system.mem_ctrls2.perBankWrBursts::1             1323                       # Per bank write bursts
system.mem_ctrls2.perBankWrBursts::2             1308                       # Per bank write bursts
system.mem_ctrls2.perBankWrBursts::3             1342                       # Per bank write bursts
system.mem_ctrls2.perBankWrBursts::4             1221                       # Per bank write bursts
system.mem_ctrls2.perBankWrBursts::5             1073                       # Per bank write bursts
system.mem_ctrls2.perBankWrBursts::6             1126                       # Per bank write bursts
system.mem_ctrls2.perBankWrBursts::7             1214                       # Per bank write bursts
system.mem_ctrls2.perBankWrBursts::8             1319                       # Per bank write bursts
system.mem_ctrls2.perBankWrBursts::9             1365                       # Per bank write bursts
system.mem_ctrls2.perBankWrBursts::10            1543                       # Per bank write bursts
system.mem_ctrls2.perBankWrBursts::11            1547                       # Per bank write bursts
system.mem_ctrls2.perBankWrBursts::12            1748                       # Per bank write bursts
system.mem_ctrls2.perBankWrBursts::13            1760                       # Per bank write bursts
system.mem_ctrls2.perBankWrBursts::14            1505                       # Per bank write bursts
system.mem_ctrls2.perBankWrBursts::15            1390                       # Per bank write bursts
system.mem_ctrls2.numRdRetry                        0                       # Number of times read queue was full causing retry
system.mem_ctrls2.numWrRetry                        0                       # Number of times write queue was full causing retry
system.mem_ctrls2.totGap                  16023451500                       # Total gap between requests
system.mem_ctrls2.readPktSize::0                    0                       # Read request sizes (log2)
system.mem_ctrls2.readPktSize::1                    0                       # Read request sizes (log2)
system.mem_ctrls2.readPktSize::2                    0                       # Read request sizes (log2)
system.mem_ctrls2.readPktSize::3                    0                       # Read request sizes (log2)
system.mem_ctrls2.readPktSize::4                    0                       # Read request sizes (log2)
system.mem_ctrls2.readPktSize::5                    0                       # Read request sizes (log2)
system.mem_ctrls2.readPktSize::6               167839                       # Read request sizes (log2)
system.mem_ctrls2.writePktSize::0                   0                       # Write request sizes (log2)
system.mem_ctrls2.writePktSize::1                   0                       # Write request sizes (log2)
system.mem_ctrls2.writePktSize::2                   0                       # Write request sizes (log2)
system.mem_ctrls2.writePktSize::3                   0                       # Write request sizes (log2)
system.mem_ctrls2.writePktSize::4                   0                       # Write request sizes (log2)
system.mem_ctrls2.writePktSize::5                   0                       # Write request sizes (log2)
system.mem_ctrls2.writePktSize::6               22169                       # Write request sizes (log2)
system.mem_ctrls2.rdQLenPdf::0                  82182                       # What read queue length does an incoming req see
system.mem_ctrls2.rdQLenPdf::1                  45337                       # What read queue length does an incoming req see
system.mem_ctrls2.rdQLenPdf::2                  22872                       # What read queue length does an incoming req see
system.mem_ctrls2.rdQLenPdf::3                  10559                       # What read queue length does an incoming req see
system.mem_ctrls2.rdQLenPdf::4                   4369                       # What read queue length does an incoming req see
system.mem_ctrls2.rdQLenPdf::5                   1662                       # What read queue length does an incoming req see
system.mem_ctrls2.rdQLenPdf::6                    586                       # What read queue length does an incoming req see
system.mem_ctrls2.rdQLenPdf::7                    189                       # What read queue length does an incoming req see
system.mem_ctrls2.rdQLenPdf::8                     64                       # What read queue length does an incoming req see
system.mem_ctrls2.rdQLenPdf::9                     12                       # What read queue length does an incoming req see
system.mem_ctrls2.rdQLenPdf::10                     1                       # What read queue length does an incoming req see
system.mem_ctrls2.rdQLenPdf::11                     0                       # What read queue length does an incoming req see
system.mem_ctrls2.rdQLenPdf::12                     0                       # What read queue length does an incoming req see
system.mem_ctrls2.rdQLenPdf::13                     0                       # What read queue length does an incoming req see
system.mem_ctrls2.rdQLenPdf::14                     0                       # What read queue length does an incoming req see
system.mem_ctrls2.rdQLenPdf::15                     0                       # What read queue length does an incoming req see
system.mem_ctrls2.rdQLenPdf::16                     0                       # What read queue length does an incoming req see
system.mem_ctrls2.rdQLenPdf::17                     0                       # What read queue length does an incoming req see
system.mem_ctrls2.rdQLenPdf::18                     0                       # What read queue length does an incoming req see
system.mem_ctrls2.rdQLenPdf::19                     0                       # What read queue length does an incoming req see
system.mem_ctrls2.rdQLenPdf::20                     0                       # What read queue length does an incoming req see
system.mem_ctrls2.rdQLenPdf::21                     0                       # What read queue length does an incoming req see
system.mem_ctrls2.rdQLenPdf::22                     0                       # What read queue length does an incoming req see
system.mem_ctrls2.rdQLenPdf::23                     0                       # What read queue length does an incoming req see
system.mem_ctrls2.rdQLenPdf::24                     0                       # What read queue length does an incoming req see
system.mem_ctrls2.rdQLenPdf::25                     0                       # What read queue length does an incoming req see
system.mem_ctrls2.rdQLenPdf::26                     0                       # What read queue length does an incoming req see
system.mem_ctrls2.rdQLenPdf::27                     0                       # What read queue length does an incoming req see
system.mem_ctrls2.rdQLenPdf::28                     0                       # What read queue length does an incoming req see
system.mem_ctrls2.rdQLenPdf::29                     0                       # What read queue length does an incoming req see
system.mem_ctrls2.rdQLenPdf::30                     0                       # What read queue length does an incoming req see
system.mem_ctrls2.rdQLenPdf::31                     0                       # What read queue length does an incoming req see
system.mem_ctrls2.wrQLenPdf::0                      1                       # What write queue length does an incoming req see
system.mem_ctrls2.wrQLenPdf::1                      1                       # What write queue length does an incoming req see
system.mem_ctrls2.wrQLenPdf::2                      1                       # What write queue length does an incoming req see
system.mem_ctrls2.wrQLenPdf::3                      1                       # What write queue length does an incoming req see
system.mem_ctrls2.wrQLenPdf::4                      1                       # What write queue length does an incoming req see
system.mem_ctrls2.wrQLenPdf::5                      1                       # What write queue length does an incoming req see
system.mem_ctrls2.wrQLenPdf::6                      1                       # What write queue length does an incoming req see
system.mem_ctrls2.wrQLenPdf::7                      1                       # What write queue length does an incoming req see
system.mem_ctrls2.wrQLenPdf::8                      1                       # What write queue length does an incoming req see
system.mem_ctrls2.wrQLenPdf::9                      1                       # What write queue length does an incoming req see
system.mem_ctrls2.wrQLenPdf::10                     1                       # What write queue length does an incoming req see
system.mem_ctrls2.wrQLenPdf::11                     1                       # What write queue length does an incoming req see
system.mem_ctrls2.wrQLenPdf::12                     1                       # What write queue length does an incoming req see
system.mem_ctrls2.wrQLenPdf::13                     1                       # What write queue length does an incoming req see
system.mem_ctrls2.wrQLenPdf::14                     1                       # What write queue length does an incoming req see
system.mem_ctrls2.wrQLenPdf::15                   285                       # What write queue length does an incoming req see
system.mem_ctrls2.wrQLenPdf::16                   339                       # What write queue length does an incoming req see
system.mem_ctrls2.wrQLenPdf::17                   804                       # What write queue length does an incoming req see
system.mem_ctrls2.wrQLenPdf::18                  1265                       # What write queue length does an incoming req see
system.mem_ctrls2.wrQLenPdf::19                  1391                       # What write queue length does an incoming req see
[...]
system.ruby.L2Cache_Controller.SS.L2_Replacement_clean::total        10886                      
system.ruby.L2Cache_Controller.M.L1_GET_INSTR |          14     25.00%     25.00% |           0      0.00%     25.00% |           0      0.00%     25.00% |           0      0.00%     25.00% |           0      0.00%     25.00% |           0      0.00%     25.00% |           0      0.00%     25.00% |           0      0.00%     25.00% |          14     25.00%     50.00% |          14     25.00%     75.00% |           0      0.00%     75.00% |           0      0.00%     75.00% |           0      0.00%     75.00% |           0      0.00%     75.00% |          14     25.00%    100.00% |           0      0.00%    100.00%
system.ruby.L2Cache_Controller.M.L1_GET_INSTR::total           56                      
system.ruby.L2Cache_Controller.M.L1_GETS |       10137      6.19%      6.19% |       10263      6.27%     12.46% |       10274      6.27%     18.73% |       10348      6.32%     25.05% |       10003      6.11%     31.16% |        9842      6.01%     37.17% |        9976      6.09%     43.26% |       10200      6.23%     49.49% |       10189      6.22%     55.71% |       10019      6.12%     61.83% |       10180      6.22%     68.04% |       10897      6.65%     74.70% |       10540      6.44%     81.14% |       10714      6.54%     87.68% |       10454      6.38%     94.06% |        9725      5.94%    100.00%
system.ruby.L2Cache_Controller.M.L1_GETS::total       163761                      
system.ruby.L2Cache_Controller.M.L1_GETX |        1316      6.22%      6.22% |        1403      6.63%     12.85% |        1463      6.92%     19.77% |        1408      6.66%     26.43% |        1336      6.32%     32.74% |        1277      6.04%     38.78% |        1230      5.81%     44.59% |        1390      6.57%     51.17% |        1281      6.06%     57.22% |        1342      6.34%     63.57% |        1307      6.18%     69.74% |        1276      6.03%     75.78% |        1259      5.95%     81.73% |        1193      5.64%     87.37% |        1302      6.16%     93.52% |        1370      6.48%    100.00%
system.ruby.L2Cache_Controller.M.L1_GETX::total        21153                      
system.ruby.L2Cache_Controller.M.L2_Replacement |        5574      6.37%      6.37% |        5481      6.26%     12.62% |        5448      6.22%     18.85% |        5525      6.31%     25.16% |        5399      6.17%     31.32% |        5429      6.20%     37.52% |        5467      6.24%     43.76% |        5460      6.24%     50.00% |        5510      6.29%     56.29% |        5341      6.10%     62.39% |        5442      6.21%     68.61% |        5460      6.24%     74.84% |        5455      6.23%     81.07% |        5527      6.31%     87.38% |        5635      6.44%     93.82% |        5413      6.18%    100.00%
system.ruby.L2Cache_Controller.M.L2_Replacement::total        87566                      
system.ruby.L2Cache_Controller.M.L2_Replacement_clean |        3609      6.23%      6.23% |        3488      6.02%     12.25% |        3431      5.92%     18.17% |        3641      6.28%     24.45% |        3515      6.07%     30.52% |        3586      6.19%     36.71% |        3611      6.23%     42.94% |        3673      6.34%     49.28% |        3733      6.44%     55.72% |        3547      6.12%     61.84% |        3654      6.31%     68.15% |        3607      6.23%     74.37% |        3776      6.52%     80.89% |        3730      6.44%     87.33% |        3638      6.28%     93.61% |        3704      6.39%    100.00%
system.ruby.L2Cache_Controller.M.L2_Replacement_clean::total        57943                      
system.ruby.L2Cache_Controller.MT.L1_GETS |          70      3.96%      3.96% |          70      3.96%      7.93% |          98      5.55%     13.48% |          98      5.55%     19.03% |          98      5.55%     24.58% |         140      7.93%     32.50% |         140      7.93%     40.43% |         140      7.93%     48.36% |         140      7.93%     56.29% |         140      7.93%     64.21% |         134      7.59%     71.80% |         134      7.59%     79.39% |         112      6.34%     85.73% |         112      6.34%     92.07% |          70      3.96%     96.04% |          70      3.96%    100.00%
system.ruby.L2Cache_Controller.MT.L1_GETS::total         1766                      
system.ruby.L2Cache_Controller.MT.L1_GETX |           0      0.00%      0.00% |           0      0.00%      0.00% |           0      0.00%      0.00% |           0      0.00%      0.00% |           0      0.00%      0.00% |           0      0.00%      0.00% |           0      0.00%      0.00% |           0      0.00%      0.00% |           0      0.00%      0.00% |           0      0.00%      0.00% |           3     50.00%     50.00% |           3     50.00%    100.00% |           0      0.00%    100.00% |           0      0.00%    100.00% |           0      0.00%    100.00% |           0      0.00%    100.00%
system.ruby.L2Cache_Controller.MT.L1_GETX::total            6                      
system.ruby.L2Cache_Controller.MT.L1_PUTX |       51226      6.25%      6.25% |       51240      6.25%     12.50% |       51090      6.23%     18.73% |       51513      6.28%     25.01% |       50797      6.19%     31.20% |       50737      6.19%     37.39% |       50939      6.21%     43.60% |       51366      6.26%     49.87% |       51334      6.26%     56.13% |       50874      6.20%     62.33% |       51161      6.24%     68.57% |       51863      6.32%     74.90% |       51727      6.31%     81.21% |       51772      6.31%     87.52% |       51540      6.29%     93.81% |       50795      6.19%    100.00%
system.ruby.L2Cache_Controller.MT.L1_PUTX::total       819974                      
system.ruby.L2Cache_Controller.MT.L2_Replacement |          10      6.76%      6.76% |          11      7.43%     14.19% |          14      9.46%     23.65% |          16     10.81%     34.46% |          11      7.43%     41.89% |           9      6.08%     47.97% |           7      4.73%     52.70% |          11      7.43%     60.14% |          10      6.76%     66.89% |           7      4.73%     71.62% |           6      4.05%     75.68% |          12      8.11%     83.78% |          10      6.76%     90.54% |           8      5.41%     95.95% |           3      2.03%     97.97% |           3      2.03%    100.00%
system.ruby.L2Cache_Controller.MT.L2_Replacement::total          148                      
system.ruby.L2Cache_Controller.MT.L2_Replacement_clean |          33      5.84%      5.84% |          29      5.13%     10.97% |          33      5.84%     16.81% |          30      5.31%     22.12% |          39      6.90%     29.03% |          29      5.13%     34.16% |          34      6.02%     40.18% |          41      7.26%     47.43% |          31      5.49%     52.92% |          37      6.55%     59.47% |          37      6.55%     66.02% |          37      6.55%     72.57% |          46      8.14%     80.71% |          37      6.55%     87.26% |          36      6.37%     93.63% |          36      6.37%    100.00%
system.ruby.L2Cache_Controller.MT.L2_Replacement_clean::total          565                      
system.ruby.L2Cache_Controller.M_I.L1_GETS |           0      0.00%      0.00% |           0      0.00%      0.00% |           0      0.00%      0.00% |           0      0.00%      0.00% |           1    100.00%    100.00% |           0      0.00%    100.00% |           0      0.00%    100.00% |           0      0.00%    100.00% |           0      0.00%    100.00% |           0      0.00%    100.00% |           0      0.00%    100.00% |           0      0.00%    100.00% |           0      0.00%    100.00% |           0      0.00%    100.00% |           0      0.00%    100.00% |           0      0.00%    100.00%
system.ruby.L2Cache_Controller.M_I.L1_GETS::total            1                      
system.ruby.L2Cache_Controller.M_I.Mem_Ack |        9905      6.30%      6.30% |        9729      6.19%     12.49% |        9675      6.16%     18.65% |        9865      6.28%     24.92% |        9645      6.14%     31.06% |        9789      6.23%     37.29% |        9825      6.25%     43.54% |        9881      6.29%     49.83% |       10028      6.38%     56.21% |        9492      6.04%     62.25% |        9756      6.21%     68.45% |        9768      6.21%     74.67% |        9950      6.33%     81.00% |        9970      6.34%     87.34% |       10060      6.40%     93.74% |        9833      6.26%    100.00%
system.ruby.L2Cache_Controller.M_I.Mem_Ack::total       157171                      
system.ruby.L2Cache_Controller.MT_I.WB_Data |           2      3.51%      3.51% |           7     12.28%     15.79% |           6     10.53%     26.32% |           9     15.79%     42.11% |           6     10.53%     52.63% |           3      5.26%     57.89% |           3      5.26%     63.16% |           3      5.26%     68.42% |           2      3.51%     71.93% |           2      3.51%     75.44% |           1      1.75%     77.19% |           4      7.02%     84.21% |           4      7.02%     91.23% |           1      1.75%     92.98% |           1      1.75%     94.74% |           3      5.26%    100.00%
system.ruby.L2Cache_Controller.MT_I.WB_Data::total           57                      
system.ruby.L2Cache_Controller.MT_I.Ack_all |           8      8.79%      8.79% |           4      4.40%     13.19% |           8      8.79%     21.98% |           7      7.69%     29.67% |           5      5.49%     35.16% |           6      6.59%     41.76% |           4      4.40%     46.15% |           8      8.79%     54.95% |           8      8.79%     63.74% |           5      5.49%     69.23% |           5      5.49%     74.73% |           8      8.79%     83.52% |           6      6.59%     90.11% |           7      7.69%     97.80% |           2      2.20%    100.00% |           0      0.00%    100.00%
system.ruby.L2Cache_Controller.MT_I.Ack_all::total           91                      
system.ruby.L2Cache_Controller.MCT_I.WB_Data |          31      5.92%      5.92% |          26      4.96%     10.88% |          33      6.30%     17.18% |          28      5.34%     22.52% |          35      6.68%     29.20% |          27      5.15%     34.35% |          31      5.92%     40.27% |          38      7.25%     47.52% |          29      5.53%     53.05% |          37      7.06%     60.11% |          33      6.30%     66.41% |          35      6.68%     73.09% |          36      6.87%     79.96% |          35      6.68%     86.64% |          35      6.68%     93.32% |          35      6.68%    100.00%
system.ruby.L2Cache_Controller.MCT_I.WB_Data::total          524                      
system.ruby.L2Cache_Controller.MCT_I.Ack_all |           2      4.88%      4.88% |           3      7.32%     12.20% |           0      0.00%     12.20% |           2      4.88%     17.07% |           4      9.76%     26.83% |           2      4.88%     31.71% |           3      7.32%     39.02% |           3      7.32%     46.34% |           2      4.88%     51.22% |           0      0.00%     51.22% |           4      9.76%     60.98% |           2      4.88%     65.85% |          10     24.39%     90.24% |           2      4.88%     95.12% |           1      2.44%     97.56% |           1      2.44%    100.00%
system.ruby.L2Cache_Controller.MCT_I.Ack_all::total           41                      
system.ruby.L2Cache_Controller.I_I.Ack_all |         676      6.21%      6.21% |         717      6.59%     12.80% |         746      6.85%     19.65% |         651      5.98%     25.63% |         676      6.21%     31.84% |         731      6.72%     38.55% |         701      6.44%     44.99% |         688      6.32%     51.31% |         738      6.78%     58.09% |         557      5.12%     63.21% |         611      5.61%     68.82% |         647      5.94%     74.77% |         660      6.06%     80.83% |         667      6.13%     86.96% |         747      6.86%     93.82% |         673      6.18%    100.00%
system.ruby.L2Cache_Controller.I_I.Ack_all::total        10886                      
system.ruby.L2Cache_Controller.S_I.Ack   |           3      4.76%      4.76% |           3      4.76%      9.52% |           3      4.76%     14.29% |           2      3.17%     17.46% |           5      7.94%     25.40% |           5      7.94%     33.33% |           5      7.94%     41.27% |           8     12.70%     53.97% |           6      9.52%     63.49% |           3      4.76%     68.25% |           6      9.52%     77.78% |           5      7.94%     85.71% |           3      4.76%     90.48% |           1      1.59%     92.06% |           1      1.59%     93.65% |           4      6.35%    100.00%
system.ruby.L2Cache_Controller.S_I.Ack::total           63                      
system.ruby.L2Cache_Controller.S_I.Ack_all |           3      4.76%      4.76% |           3      4.76%      9.52% |           3      4.76%     14.29% |           2      3.17%     17.46% |           5      7.94%     25.40% |           5      7.94%     33.33% |           5      7.94%     41.27% |           8     12.70%     53.97% |           6      9.52%     63.49% |           3      4.76%     68.25% |           6      9.52%     77.78% |           5      7.94%     85.71% |           3      4.76%     90.48% |           1      1.59%     92.06% |           1      1.59%     93.65% |           4      6.35%    100.00%
system.ruby.L2Cache_Controller.S_I.Ack_all::total           63                      
system.ruby.L2Cache_Controller.ISS.Mem_Data |       29262      6.27%      6.27% |       28984      6.21%     12.49% |       28717      6.16%     18.64% |       29185      6.26%     24.90% |       28879      6.19%     31.09% |       29084      6.23%     37.33% |       29184      6.26%     43.58% |       29219      6.26%     49.85% |       29351      6.29%     56.14% |       29042      6.23%     62.36% |       29155      6.25%     68.61% |       29214      6.26%     74.88% |       29439      6.31%     81.19% |       29345      6.29%     87.48% |       29245      6.27%     93.75% |       29162      6.25%    100.00%
system.ruby.L2Cache_Controller.ISS.Mem_Data::total       466467                      
system.ruby.L2Cache_Controller.IS.Mem_Data |        1371      6.44%      6.44% |        1362      6.40%     12.84% |        1499      7.04%     19.89% |        1300      6.11%     26.00% |        1359      6.39%     32.38% |        1347      6.33%     38.71% |        1284      6.03%     44.74% |        1296      6.09%     50.83% |        1371      6.44%     57.28% |        1167      5.48%     62.76% |        1251      5.88%     68.64% |        1268      5.96%     74.60% |        1240      5.83%     80.42% |        1305      6.13%     86.56% |        1513      7.11%     93.67% |        1348      6.33%    100.00%
system.ruby.L2Cache_Controller.IS.Mem_Data::total        21281                      
system.ruby.L2Cache_Controller.IM.Mem_Data |       11435      6.23%      6.23% |       11514      6.27%     12.50% |       11558      6.30%     18.79% |       11510      6.27%     25.06% |       11516      6.27%     31.34% |       11486      6.26%     37.59% |       11501      6.26%     43.86% |       11506      6.27%     50.12% |       11453      6.24%     56.36% |       11421      6.22%     62.58% |       11469      6.25%     68.83% |       11428      6.22%     75.05% |       11427      6.22%     81.28% |       11456      6.24%     87.52% |       11463      6.24%     93.76% |       11459      6.24%    100.00%
system.ruby.L2Cache_Controller.IM.Mem_Data::total       183602                      
system.ruby.L2Cache_Controller.SS_MB.Exclusive_Unblock |          42      3.92%      3.92% |          42      3.92%      7.84% |          70      6.53%     14.37% |          56      5.22%     19.59% |          56      5.22%     24.81% |          84      7.84%     32.65% |          84      7.84%     40.49% |          84      7.84%     48.32% |          84      7.84%     56.16% |          84      7.84%     63.99% |          81      7.56%     71.55% |          81      7.56%     79.10% |          70      6.53%     85.63% |          70      6.53%     92.16% |          42      3.92%     96.08% |          42      3.92%    100.00%
system.ruby.L2Cache_Controller.SS_MB.Exclusive_Unblock::total         1072                      
system.ruby.L2Cache_Controller.MT_MB.Exclusive_Unblock |       52150      6.25%      6.25% |       52164      6.25%     12.49% |       52012      6.23%     18.72% |       52451      6.28%     25.00% |       51734      6.20%     31.20% |       51689      6.19%     37.39% |       51891      6.21%     43.60% |       52315      6.27%     49.87% |       52274      6.26%     56.13% |       51824      6.21%     62.34% |       52114      6.24%     68.58% |       52818      6.33%     74.90% |       52665      6.31%     81.21% |       52708      6.31%     87.52% |       52464      6.28%     93.81% |       51716      6.19%    100.00%
system.ruby.L2Cache_Controller.MT_MB.Exclusive_Unblock::total       834989                      
system.ruby.L2Cache_Controller.MT_IIB.WB_Data |          70      3.99%      3.99% |          69      3.94%      7.93% |          98      5.59%     13.52% |          95      5.42%     18.94% |          97      5.53%     24.47% |         140      7.99%     32.46% |         138      7.87%     40.33% |         139      7.93%     48.26% |         139      7.93%     56.19% |         139      7.93%     64.12% |         134      7.64%     71.76% |         133      7.59%     79.35% |         112      6.39%     85.74% |         111      6.33%     92.07% |          69      3.94%     96.01% |          70      3.99%    100.00%
system.ruby.L2Cache_Controller.MT_IIB.WB_Data::total         1753                      
system.ruby.L2Cache_Controller.MT_IIB.Unblock |           0      0.00%      0.00% |           1      7.69%      7.69% |           0      0.00%      7.69% |           3     23.08%     30.77% |           1      7.69%     38.46% |           0      0.00%     38.46% |           2     15.38%     53.85% |           1      7.69%     61.54% |           1      7.69%     69.23% |           1      7.69%     76.92% |           0      0.00%     76.92% |           1      7.69%     84.62% |           0      0.00%     84.62% |           1      7.69%     92.31% |           1      7.69%    100.00% |           0      0.00%    100.00%
system.ruby.L2Cache_Controller.MT_IIB.Unblock::total           13                      
system.ruby.L2Cache_Controller.MT_IB.WB_Data |           0      0.00%      0.00% |           1      7.69%      7.69% |           0      0.00%      7.69% |           3     23.08%     30.77% |           1      7.69%     38.46% |           0      0.00%     38.46% |           2     15.38%     53.85% |           1      7.69%     61.54% |           1      7.69%     69.23% |           1      7.69%     76.92% |           0      0.00%     76.92% |           1      7.69%     84.62% |           0      0.00%     84.62% |           1      7.69%     92.31% |           1      7.69%    100.00% |           0      0.00%    100.00%
system.ruby.L2Cache_Controller.MT_IB.WB_Data::total           13                      
system.ruby.L2Cache_Controller.MT_SB.Unblock |          70      3.99%      3.99% |          69      3.94%      7.93% |          98      5.59%     13.52% |          95      5.42%     18.94% |          97      5.53%     24.47% |         140      7.99%     32.46% |         138      7.87%     40.33% |         139      7.93%     48.26% |         139      7.93%     56.19% |         139      7.93%     64.12% |         134      7.64%     71.76% |         133      7.59%     79.35% |         112      6.39%     85.74% |         111      6.33%     92.07% |          69      3.94%     96.01% |          70      3.99%    100.00%
system.ruby.L2Cache_Controller.MT_SB.Unblock::total         1753                      

---------- End Simulation Statistics   ----------
