
---------- Begin Simulation Statistics ----------
sim_seconds                                  0.015982                       # Number of seconds simulated
sim_ticks                                 15982106500                       # Number of ticks simulated
final_tick                                15982106500                       # Number of ticks from beginning of simulation (restored from checkpoints and never reset)
sim_freq                                 1000000000000                       # Frequency of simulated ticks
host_inst_rate                                  57510                       # Simulator instruction rate (inst/s)
host_op_rate                                    99771                       # Simulator op (including micro ops) rate (op/s)
host_tick_rate                               20058691                       # Simulator tick rate (ticks/s)
host_mem_usage                                2040136                       # Number of bytes of host memory used
host_seconds                                   796.77                       # Real time elapsed on the host
sim_insts                                    45822181                       # Number of instructions simulated
sim_ops                                      79494247                       # Number of ops (including micro ops) simulated
system.voltage_domain.voltage                       1                       # Voltage in Volts
system.clk_domain.clock                          1000                       # Clock period in ticks
system.mem_ctrls0.pwrStateResidencyTicks::UNDEFINED  15982106500                       # Cumulative time (in ticks) in various power states
system.mem_ctrls0.bytes_read::ruby.dir_cntrl0      9948480                       # Number of bytes read from this memory
system.mem_ctrls0.bytes_read::total           9948480                       # Number of bytes read from this memory
system.mem_ctrls0.bytes_written::ruby.dir_cntrl0       993216                       # Number of bytes written to this memory
system.mem_ctrls0.bytes_written::total         993216                       # Number of bytes written to this memory
system.mem_ctrls0.num_reads::ruby.dir_cntrl0       155445                       # Number of read requests responded to by this memory
system.mem_ctrls0.num_reads::total             155445                       # Number of read requests responded to by this memory
system.mem_ctrls0.num_writes::ruby.dir_cntrl0        15519                       # Number of write requests responded to by this memory
system.mem_ctrls0.num_writes::total             15519                       # Number of write requests responded to by this memory
system.mem_ctrls0.bw_read::ruby.dir_cntrl0    622476142                       # Total read bandwidth from this memory (bytes/s)
system.mem_ctrls0.bw_read::total            622476142                       # Total read bandwidth from this memory (bytes/s)
system.mem_ctrls0.bw_write::ruby.dir_cntrl0     62145500                       # Write bandwidth from this memory (bytes/s)
system.mem_ctrls0.bw_write::total            62145500                       # Write bandwidth from this memory (bytes/s)
system.mem_ctrls0.bw_total::ruby.dir_cntrl0    684621642                       # Total bandwidth to/from this memory (bytes/s)
system.mem_ctrls0.bw_total::total           684621642                       # Total bandwidth to/from this memory (bytes/s)
system.mem_ctrls0.readReqs                     155445                       # Number of read requests accepted
system.mem_ctrls0.avgNetLat                      0.00                       # Average network latency to DRAM controller
system.mem_ctrls0.writeReqs                     15519                       # Number of write requests accepted
system.mem_ctrls0.readBursts                   155445                       # Number of DRAM read bursts, including those serviced by the write queue
system.mem_ctrls0.writeBursts                   15519                       # Number of DRAM write bursts, including those merged in the write queue
system.mem_ctrls0.bytesReadDRAM               9948096                       # Total number of bytes read from DRAM
system.mem_ctrls0.bytesReadWrQ                    384                       # Total number of bytes read from write queue
system.mem_ctrls0.bytesWritten                 992000                       # Total number of bytes written to DRAM
system.mem_ctrls0.bytesReadSys                9948480                       # Total read bytes from the system interface side
system.mem_ctrls0.bytesWrittenSys              993216                       # Total written bytes from the system interface side
system.mem_ctrls0.servicedByWrQ                     6                       # Number of DRAM read bursts serviced by the write queue
system.mem_ctrls0.mergedWrBursts                    0                       # Number of DRAM write bursts merged with an existing one
system.mem_ctrls0.neitherReadNorWriteReqs            0                       # Number of requests that are neither read nor write
system.mem_ctrls0.perBankRdBursts::0             9686                       # Per bank write bursts
system.mem_ctrls0.perBankRdBursts::1             9489                       # Per bank write bursts
system.mem_ctrls0.perBankRdBursts::2             9653                       # Per bank write bursts
system.mem_ctrls0.perBankRdBursts::3             9311                       # Per bank write bursts
system.mem_ctrls0.perBankRdBursts::4             9143                       # Per bank write bursts
system.mem_ctrls0.perBankRdBursts::5             9388                       # Per bank write bursts
system.mem_ctrls0.perBankRdBursts::6             9160                       # Per bank write bursts
system.mem_ctrls0.perBankRdBursts::7             9333                       # Per bank write bursts
system.mem_ctrls0.perBankRdBursts::8             9277                       # Per bank write bursts
system.mem_ctrls0.perBankRdBursts::9             9498                       # Per bank write bursts
system.mem_ctrls0.perBankRdBursts::10            9941                       # Per bank write bursts
system.mem_ctrls0.perBankRdBursts::11           10347                       # Per bank write bursts
system.mem_ctrls0.perBankRdBursts::12           10879                       # Per bank write bursts
system.mem_ctrls0.perBankRdBursts::13           10651                       # Per bank write bursts
system.mem_ctrls0.perBankRdBursts::14            9929                       # Per bank write bursts
system.mem_ctrls0.perBankRdBursts::15            9754                       # Per bank write bursts
system.mem_ctrls0.perBankWrBursts::0              961                       # Per bank write bursts
system.mem_ctrls0.perBankWrBursts::1              923                       # Per bank write bursts
system.mem_ctrls0.perBankWrBursts::2              943                       # Per bank write bursts
system.mem_ctrls0.perBankWrBursts::3              911                       # Per bank write bursts
system.mem_ctrls0.perBankWrBursts::4              888                       # Per bank write bursts
system.mem_ctrls0.perBankWrBursts::5              940                       # Per bank write bursts
system.mem_ctrls0.perBankWrBursts::6              803                       # Per bank write bursts
system.mem_ctrls0.perBankWrBursts::7              821                       # Per bank write bursts
system.mem_ctrls0.perBankWrBursts::8              882                       # Per bank write bursts
system.mem_ctrls0.perBankWrBursts::9              912                       # Per bank write bursts
system.mem_ctrls0.perBankWrBursts::10            1036                       # Per bank write bursts
system.mem_ctrls0.perBankWrBursts::11            1150                       # Per bank write bursts
system.mem_ctrls0.perBankWrBursts::12            1217                       # Per bank write bursts
system.mem_ctrls0.perBankWrBursts::13            1156                       # Per bank write bursts
system.mem_ctrls0.perBankWrBursts::14             976                       # Per bank write bursts
system.mem_ctrls0.perBankWrBursts::15             981                       # Per bank write bursts
system.mem_ctrls0.numRdRetry                        0                       # Number of times read queue was full causing retry
system.mem_ctrls0.numWrRetry                        0                       # Number of times write queue was full causing retry
system.mem_ctrls0.totGap                  15981010500                       # Total gap between requests
system.mem_ctrls0.readPktSize::0                    0                       # Read request sizes (log2)
system.mem_ctrls0.readPktSize::1                    0                       # Read request sizes (log2)
system.mem_ctrls0.readPktSize::2                    0                       # Read request sizes (log2)
system.mem_ctrls0.readPktSize::3                    0                       # Read request sizes (log2)
system.mem_ctrls0.readPktSize::4                    0                       # Read request sizes (log2)
system.mem_ctrls0.readPktSize::5                    0                       # Read request sizes (log2)
system.mem_ctrls0.readPktSize::6               155445                       # Read request sizes (log2)
system.mem_ctrls0.writePktSize::0                   0                       # Write request sizes (log2)
system.mem_ctrls0.writePktSize::1                   0                       # Write request sizes (log2)
system.mem_ctrls0.writePktSize::2                   0                       # Write request sizes (log2)
system.mem_ctrls0.writePktSize::3                   0                       # Write request sizes (log2)
system.mem_ctrls0.writePktSize::4                   0                       # Write request sizes (log2)
system.mem_ctrls0.writePktSize::5                   0                       # Write request sizes (log2)
system.mem_ctrls0.writePktSize::6               15519                       # Write request sizes (log2)
system.mem_ctrls0.rdQLenPdf::0                  76168                       # What read queue length does an incoming req see
system.mem_ctrls0.rdQLenPdf::1                  39827                       # What read queue length does an incoming req see
system.mem_ctrls0.rdQLenPdf::2                  20810                       # What read queue length does an incoming req see
system.mem_ctrls0.rdQLenPdf::3                  10445                       # What read queue length does an incoming req see
system.mem_ctrls0.rdQLenPdf::4                   4999                       # What read queue length does an incoming req see
system.mem_ctrls0.rdQLenPdf::5                   2094                       # What read queue length does an incoming req see
system.mem_ctrls0.rdQLenPdf::6                    793                       # What read queue length does an incoming req see
system.mem_ctrls0.rdQLenPdf::7                    223                       # What read queue length does an incoming req see
system.mem_ctrls0.rdQLenPdf::8                     58                       # What read queue length does an incoming req see
system.mem_ctrls0.rdQLenPdf::9                     13                       # What read queue length does an incoming req see
system.mem_ctrls0.rdQLenPdf::10                     5                       # What read queue length does an incoming req see
system.mem_ctrls0.rdQLenPdf::11                     2                       # What read queue length does an incoming req see
system.mem_ctrls0.rdQLenPdf::12                     2                       # What read queue length does an incoming req see
system.mem_ctrls0.rdQLenPdf::13                     0                       # What read queue length does an incoming req see
system.mem_ctrls0.rdQLenPdf::14                     0                       # What read queue length does an incoming req see
system.mem_ctrls0.rdQLenPdf::15                     0                       # What read queue length does an incoming req see
system.mem_ctrls0.rdQLenPdf::16                     0                       # What read queue length does an incoming req see
system.mem_ctrls0.rdQLenPdf::17                     0                       # What read queue length does an incoming req see
system.mem_ctrls0.rdQLenPdf::18                     0                       # What read queue length does an incoming req see
system.mem_ctrls0.rdQLenPdf::19                     0                       # What read queue length does an incoming req see
system.mem_ctrls0.rdQLenPdf::20                     0                       # What read queue length does an incoming req see
system.mem_ctrls0.rdQLenPdf::21                     0                       # What read queue length does an incoming req see
system.mem_ctrls0.rdQLenPdf::22                     0                       # What read queue length does an incoming req see
system.mem_ctrls0.rdQLenPdf::23                     0                       # What read queue length does an incoming req see
system.mem_ctrls0.rdQLenPdf::24                     0                       # What read queue length does an incoming req see
system.mem_ctrls0.rdQLenPdf::25                     0                       # What read queue length does an incoming req see
system.mem_ctrls0.rdQLenPdf::26                     0                       # What read queue length does an incoming req see
system.mem_ctrls0.rdQLenPdf::27                     0                       # What read queue length does an incoming req see
system.mem_ctrls0.rdQLenPdf::28                     0                       # What read queue length does an incoming req see
system.mem_ctrls0.rdQLenPdf::29                     0                       # What read queue length does an incoming req see
system.mem_ctrls0.rdQLenPdf::30                     0                       # What read queue length does an incoming req see
system.mem_ctrls0.rdQLenPdf::31                     0                       # What read queue length does an incoming req see
system.mem_ctrls0.wrQLenPdf::0                      1                       # What write queue length does an incoming req see
system.mem_ctrls0.wrQLenPdf::1                      1                       # What write queue length does an incoming req see
system.mem_ctrls0.wrQLenPdf::2                      1                       # What write queue length does an incoming req see
system.mem_ctrls0.wrQLenPdf::3                      1                       # What write queue length does an incoming req see
system.mem_ctrls0.wrQLenPdf::4                      1                       # What write queue length does an incoming req see
system.mem_ctrls0.wrQLenPdf::5                      1                       # What write queue length does an incoming req see
system.mem_ctrls0.wrQLenPdf::6                      1                       # What write queue length does an incoming req see
system.mem_ctrls0.wrQLenPdf::7                      1                       # What write queue length does an incoming req see
system.mem_ctrls0.wrQLenPdf::8                      1                       # What write queue length does an incoming req see
system.mem_ctrls0.wrQLenPdf::9                      1                       # What write queue length does an incoming req see
system.mem_ctrls0.wrQLenPdf::10                     1                       # What write queue length does an incoming req see
system.mem_ctrls0.wrQLenPdf::11                     1                       # What write queue length does an incoming req see
system.mem_ctrls0.wrQLenPdf::12                     1                       # What write queue length does an incoming req see
system.mem_ctrls0.wrQLenPdf::13                     1                       # What write queue length does an incoming req see
system.mem_ctrls0.wrQLenPdf::14                     1                       # What write queue length does an incoming req see
system.mem_ctrls0.wrQLenPdf::15                   249                       # What write queue length does an incoming req see
system.mem_ctrls0.wrQLenPdf::16                   304                       # What write queue length does an incoming req see
system.mem_ctrls0.wrQLenPdf::17                   657                       # What write queue length does an incoming req see
system.mem_ctrls0.wrQLenPdf::18                   910                       # What write queue length does an incoming req see
system.mem_ctrls0.wrQLenPdf::19                   958                       # What write queue length does an incoming req see
system.mem_ctrls0.wrQLenPdf::20                   963                       # What write queue length does an incoming req see
system.mem_ctrls0.wrQLenPdf::21                   961                       # What write queue length does an incoming req see
system.mem_ctrls0.wrQLenPdf::22                   956                       # What write queue length does an incoming req see
system.mem_ctrls0.wrQLenPdf::23                   963                       # What write queue length does an incoming req see
system.mem_ctrls0.wrQLenPdf::24                   951                       # What write queue length does an incoming req see
system.mem_ctrls0.wrQLenPdf::25                   959                       # What write queue length does an incoming req see
system.mem_ctrls0.wrQLenPdf::26                   953                       # What write queue length does an incoming req see
system.mem_ctrls0.wrQLenPdf::27                   956                       # What write queue length does an incoming req see
system.mem_ctrls0.wrQLenPdf::28                   955                       # What write queue length does an incoming req see
system.mem_ctrls0.wrQLenPdf::29                   949                       # What write queue length does an incoming req see
system.mem_ctrls0.wrQLenPdf::30                   942                       # What write queue length does an incoming req see
system.mem_ctrls0.wrQLenPdf::31                   945                       # What write queue length does an incoming req see
system.mem_ctrls0.wrQLenPdf::32                   942                       # What write queue length does an incoming req see
system.mem_ctrls0.wrQLenPdf::33                    27                       # What write queue length does an incoming req see
system.mem_ctrls0.wrQLenPdf::34                     4                       # What write queue length does an incoming req see
system.mem_ctrls0.wrQLenPdf::35                     0                       # What write queue length does an incoming req see
system.mem_ctrls0.wrQLenPdf::36                     0                       # What write queue length does an incoming req see
system.mem_ctrls0.wrQLenPdf::37                     0                       # What write queue length does an incoming req see
system.mem_ctrls0.wrQLenPdf::38                     0                       # What write queue length does an incoming req see
system.mem_ctrls0.wrQLenPdf::39                     0                       # What write queue length does an incoming req see
system.mem_ctrls0.wrQLenPdf::40                     0                       # What write queue length does an incoming req see
system.mem_ctrls0.wrQLenPdf::41                     0                       # What write queue length does an incoming req see
system.mem_ctrls0.wrQLenPdf::42                     0                       # What write queue length does an incoming req see
system.mem_ctrls0.wrQLenPdf::43                     0                       # What write queue length does an incoming req see
system.mem_ctrls0.wrQLenPdf::44                     0                       # What write queue length does an incoming req see
system.mem_ctrls0.wrQLenPdf::45                     0                       # What write queue length does an incoming req see
system.mem_ctrls0.wrQLenPdf::46                     0                       # What write queue length does an incoming req see
system.mem_ctrls0.wrQLenPdf::47                     0                       # What write queue length does an incoming req see
system.mem_ctrls0.wrQLenPdf::48                     0                       # What write queue length does an incoming req see
system.mem_ctrls0.wrQLenPdf::49                     0                       # What write queue length does an incoming req see
system.mem_ctrls0.wrQLenPdf::50                     0                       # What write queue length does an incoming req see
system.mem_ctrls0.wrQLenPdf::51                     0                       # What write queue length does an incoming req see
system.mem_ctrls0.wrQLenPdf::52                     0                       # What write queue length does an incoming req see
system.mem_ctrls0.wrQLenPdf::53                     0                       # What write queue length does an incoming req see
system.mem_ctrls0.wrQLenPdf::54                     0                       # What write queue length does an incoming req see
system.mem_ctrls0.wrQLenPdf::55                     0                       # What write queue length does an incoming req see
system.mem_ctrls0.wrQLenPdf::56                     0                       # What write queue length does an incoming req see
system.mem_ctrls0.wrQLenPdf::57                     0                       # What write queue length does an incoming req see
system.mem_ctrls0.wrQLenPdf::58                     0                       # What write queue length does an incoming req see
system.mem_ctrls0.wrQLenPdf::59                     0                       # What write queue length does an incoming req see
system.mem_ctrls0.wrQLenPdf::60                     0                       # What write queue length does an incoming req see
system.mem_ctrls0.wrQLenPdf::61                     0                       # What write queue length does an incoming req see
system.mem_ctrls0.wrQLenPdf::62                     0                       # What write queue length does an incoming req see
system.mem_ctrls0.wrQLenPdf::63                     0                       # What write queue length does an incoming req see
system.mem_ctrls0.bytesPerActivate::samples        96034                       # Bytes accessed per row activation
system.mem_ctrls0.bytesPerActivate::mean   113.908324                       # Bytes accessed per row activation
system.mem_ctrls0.bytesPerActivate::gmean    88.003246                       # Bytes accessed per row activation
system.mem_ctrls0.bytesPerActivate::stdev   123.681828                       # Bytes accessed per row activation
system.mem_ctrls0.bytesPerActivate::0-127        69251     72.11%     72.11% # Bytes accessed per row activation
system.mem_ctrls0.bytesPerActivate::128-255        17062     17.77%     89.88% # Bytes accessed per row activation
system.mem_ctrls0.bytesPerActivate::256-383         4081      4.25%     94.13% # Bytes accessed per row activation
system.mem_ctrls0.bytesPerActivate::384-511         2444      2.54%     96.67% # Bytes accessed per row activation
system.mem_ctrls0.bytesPerActivate::512-639         1505      1.57%     98.24% # Bytes accessed per row activation
system.mem_ctrls0.bytesPerActivate::640-767         1122      1.17%     99.41% # Bytes accessed per row activation
system.mem_ctrls0.bytesPerActivate::768-895          192      0.20%     99.61% # Bytes accessed per row activation
system.mem_ctrls0.bytesPerActivate::896-1023          170      0.18%     99.78% # Bytes accessed per row activation
system.mem_ctrls0.bytesPerActivate::1024-1151          207      0.22%    100.00% # Bytes accessed per row activation
system.mem_ctrls0.bytesPerActivate::total        96034                       # Bytes accessed per row activation
system.mem_ctrls0.rdPerTurnAround::samples          933                       # Reads before turning the bus around for writes
system.mem_ctrls0.rdPerTurnAround::mean    166.585209                       # Reads before turning the bus around for writes
system.mem_ctrls0.rdPerTurnAround::gmean    58.229500                       # Reads before turning the bus around for writes
system.mem_ctrls0.rdPerTurnAround::stdev  2169.693381                       # Reads before turning the bus around for writes
system.mem_ctrls0.rdPerTurnAround::0-4095          932     99.89%     99.89% # Reads before turning the bus around for writes
system.mem_ctrls0.rdPerTurnAround::65536-69631            1      0.11%    100.00% # Reads before turning the bus around for writes
system.mem_ctrls0.rdPerTurnAround::total          933                       # Reads before turning the bus around for writes
system.mem_ctrls0.wrPerTurnAround::samples          933                       # Writes before turning the bus around for reads
system.mem_ctrls0.wrPerTurnAround::mean     16.613076                       # Writes before turning the bus around for reads
system.mem_ctrls0.wrPerTurnAround::gmean    16.588830                       # Writes before turning the bus around for reads
system.mem_ctrls0.wrPerTurnAround::stdev     0.912079                       # Writes before turning the bus around for reads
system.mem_ctrls0.wrPerTurnAround::16             632     67.74%     67.74% # Writes before turning the bus around for reads
system.mem_ctrls0.wrPerTurnAround::17              36      3.86%     71.60% # Writes before turning the bus around for reads
system.mem_ctrls0.wrPerTurnAround::18             259     27.76%     99.36% # Writes before turning the bus around for reads
system.mem_ctrls0.wrPerTurnAround::19               6      0.64%    100.00% # Writes before turning the bus around for reads
system.mem_ctrls0.wrPerTurnAround::total          933                       # Writes before turning the bus around for reads
system.mem_ctrls0.totQLat                  4496587000                       # Total ticks spent queuing
system.mem_ctrls0.totMemAccLat             7411068250                       # Total ticks spent from burst creation until serviced by the DRAM
system.mem_ctrls0.totBusLat                 777195000                       # Total ticks spent in databus transfers
system.mem_ctrls0.avgQLat                    28928.31                       # Average queueing delay per DRAM burst
system.mem_ctrls0.avgBusLat                   5000.00                       # Average bus latency per DRAM burst
system.mem_ctrls0.avgMemAccLat               47678.31                       # Average memory access latency per DRAM burst
system.mem_ctrls0.avgRdBW                      622.45                       # Average DRAM read bandwidth in MiByte/s
system.mem_ctrls0.avgWrBW                       62.07                       # Average achieved write bandwidth in MiByte/s
system.mem_ctrls0.avgRdBWSys                   622.48                       # Average system read bandwidth in MiByte/s
system.mem_ctrls0.avgWrBWSys                    62.15                       # Average system write bandwidth in MiByte/s
system.mem_ctrls0.peakBW                     12800.00                       # Theoretical peak bandwidth in MiByte/s
system.mem_ctrls0.busUtil                        5.35                       # Data bus utilization in percentage
system.mem_ctrls0.busUtilRead                    4.86                       # Data bus utilization in percentage for reads
system.mem_ctrls0.busUtilWrite                   0.48                       # Data bus utilization in percentage for writes
system.mem_ctrls0.avgRdQLen                      1.54                       # Average read queue length when enqueuing
system.mem_ctrls0.avgWrQLen                     12.80                       # Average write queue length when enqueuing
system.mem_ctrls0.readRowHits                   71615                       # Number of row buffer hits during reads
system.mem_ctrls0.writeRowHits                   3280                       # Number of row buffer hits during writes
system.mem_ctrls0.readRowHitRate                46.07                       # Row buffer hit rate for reads
system.mem_ctrls0.writeRowHitRate               21.14                       # Row buffer hit rate for writes
system.mem_ctrls0.avgGap                     93475.88                       # Average gap between requests
system.mem_ctrls0.pageHitRate                   43.81                       # Row buffer hit rate, read and write combined
system.mem_ctrls0_0.actEnergy               319100880                       # Energy for activate commands per rank (pJ)
system.mem_ctrls0_0.preEnergy               169590960                       # Energy for precharge commands per rank (pJ)
system.mem_ctrls0_0.readEnergy              536663820                       # Energy for read commands per rank (pJ)
system.mem_ctrls0_0.writeEnergy              37531800                       # Energy for write commands per rank (pJ)
system.mem_ctrls0_0.refreshEnergy        1254480240.000000                       # Energy for refresh commands per rank (pJ)
system.mem_ctrls0_0.actBackEnergy          1420822470                       # Energy for active background per rank (pJ)
system.mem_ctrls0_0.preBackEnergy            32548320                       # Energy for precharge background per rank (pJ)
system.mem_ctrls0_0.actPowerDownEnergy     5317034100                       # Energy for active power-down per rank (pJ)
system.mem_ctrls0_0.prePowerDownEnergy      297303360                       # Energy for precharge power-down per rank (pJ)
system.mem_ctrls0_0.selfRefreshEnergy       103422480                       # Energy for self refresh per rank (pJ)
system.mem_ctrls0_0.totalEnergy            9489181350                       # Total energy per rank (pJ)
system.mem_ctrls0_0.averagePower           593.737800                       # Core power per rank (mW)
system.mem_ctrls0_0.totalIdleTime         12778269250                       # Total Idle time Per DRAM Rank
system.mem_ctrls0_0.memoryStateTime::IDLE     20338000                       # Time in different power states
system.mem_ctrls0_0.memoryStateTime::REF    530978000                       # Time in different power states
system.mem_ctrls0_0.memoryStateTime::SREF    345600500                       # Time in different power states
system.mem_ctrls0_0.memoryStateTime::PRE_PDN    773985250                       # Time in different power states
system.mem_ctrls0_0.memoryStateTime::ACT   2651544500                       # Time in different power states
system.mem_ctrls0_0.memoryStateTime::ACT_PDN  11659660250                       # Time in different power states
system.mem_ctrls0_1.actEnergy               366653280                       # Energy for activate commands per rank (pJ)
system.mem_ctrls0_1.preEnergy               194858070                       # Energy for precharge commands per rank (pJ)
system.mem_ctrls0_1.readEnergy              573170640                       # Energy for read commands per rank (pJ)
system.mem_ctrls0_1.writeEnergy              43378200                       # Energy for write commands per rank (pJ)
system.mem_ctrls0_1.refreshEnergy        1256324160.000000                       # Energy for refresh commands per rank (pJ)
system.mem_ctrls0_1.actBackEnergy          1520268090                       # Energy for active background per rank (pJ)
system.mem_ctrls0_1.preBackEnergy            33415200                       # Energy for precharge background per rank (pJ)
system.mem_ctrls0_1.actPowerDownEnergy     5228099850                       # Energy for active power-down per rank (pJ)
system.mem_ctrls0_1.prePowerDownEnergy      280344000                       # Energy for precharge power-down per rank (pJ)
system.mem_ctrls0_1.selfRefreshEnergy       111232215                       # Energy for self refresh per rank (pJ)
system.mem_ctrls0_1.totalEnergy            9608087895                       # Total energy per rank (pJ)
system.mem_ctrls0_1.averagePower           601.177779                       # Core power per rank (mW)
system.mem_ctrls0_1.totalIdleTime         12558341750                       # Total Idle time Per DRAM Rank
system.mem_ctrls0_1.memoryStateTime::IDLE     22299500                       # Time in different power states
system.mem_ctrls0_1.memoryStateTime::REF    531782000                       # Time in different power states
system.mem_ctrls0_1.memoryStateTime::SREF    365193500                       # Time in different power states
system.mem_ctrls0_1.memoryStateTime::PRE_PDN    729833000                       # Time in different power states
system.mem_ctrls0_1.memoryStateTime::ACT   2868077750                       # Time in different power states
system.mem_ctrls0_1.memoryStateTime::ACT_PDN  11464920750                       # Time in different power states
system.mem_ctrls1.pwrStateResidencyTicks::UNDEFINED  15982106500                       # Cumulative time (in ticks) in various power states
system.mem_ctrls1.bytes_read::ruby.dir_cntrl1      9923904                       # Number of bytes read from this memory
system.mem_ctrls1.bytes_read::total           9923904                       # Number of bytes read from this memory
system.mem_ctrls1.bytes_written::ruby.dir_cntrl1       984960                       # Number of bytes written to this memory
system.mem_ctrls1.bytes_written::total         984960                       # Number of bytes written to this memory
system.mem_ctrls1.num_reads::ruby.dir_cntrl1       155061                       # Number of read requests responded to by this memory
system.mem_ctrls1.num_reads::total             155061                       # Number of read requests responded to by this memory
system.mem_ctrls1.num_writes::ruby.dir_cntrl1        15390                       # Number of write requests responded to by this memory
system.mem_ctrls1.num_writes::total             15390                       # Number of write requests responded to by this memory
system.mem_ctrls1.bw_read::ruby.dir_cntrl1    620938423                       # Total read bandwidth from this memory (bytes/s)
system.mem_ctrls1.bw_read::total            620938423                       # Total read bandwidth from this memory (bytes/s)
system.mem_ctrls1.bw_write::ruby.dir_cntrl1     61628922                       # Write bandwidth from this memory (bytes/s)
system.mem_ctrls1.bw_write::total            61628922                       # Write bandwidth from this memory (bytes/s)
system.mem_ctrls1.bw_total::ruby.dir_cntrl1    682567345                       # Total bandwidth to/from this memory (bytes/s)
system.mem_ctrls1.bw_total::total           682567345                       # Total bandwidth to/from this memory (bytes/s)
system.mem_ctrls1.readReqs                     155061                       # Number of read requests accepted
system.mem_ctrls1.avgNetLat                      0.00                       # Average network latency to DRAM controller
system.mem_ctrls1.writeReqs                     15390                       # Number of write requests accepted
system.mem_ctrls1.readBursts                   155061                       # Number of DRAM read bursts, including those serviced by the write queue
system.mem_ctrls1.writeBursts                   15390                       # Number of DRAM write bursts, including those merged in the write queue
system.mem_ctrls1.bytesReadDRAM               9923392                       # Total number of bytes read from DRAM
system.mem_ctrls1.bytesReadWrQ                    512                       # Total number of bytes read from write queue
system.mem_ctrls1.bytesWritten                 983488                       # Total number of bytes written to DRAM
system.mem_ctrls1.bytesReadSys                9923904                       # Total read bytes from the system interface side
system.mem_ctrls1.bytesWrittenSys              984960                       # Total written bytes from the system interface side
system.mem_ctrls1.servicedByWrQ                     8                       # Number of DRAM read bursts serviced by the write queue
system.mem_ctrls1.mergedWrBursts                    0                       # Number of DRAM write bursts merged with an existing one
system.mem_ctrls1.neitherReadNorWriteReqs            0                       # Number of requests that are neither read nor write
system.mem_ctrls1.perBankRdBursts::0             9599                       # Per bank write bursts
system.mem_ctrls1.perBankRdBursts::1             9408                       # Per bank write bursts
system.mem_ctrls1.perBankRdBursts::2             9620                       # Per bank write bursts
system.mem_ctrls1.perBankRdBursts::3             9315                       # Per bank write bursts
system.mem_ctrls1.perBankRdBursts::4             9130                       # Per bank write bursts
system.mem_ctrls1.perBankRdBursts::5             9393                       # Per bank write bursts
system.mem_ctrls1.perBankRdBursts::6             9153                       # Per bank write bursts
system.mem_ctrls1.perBankRdBursts::7             9351                       # Per bank write bursts
system.mem_ctrls1.perBankRdBursts::8             9256                       # Per bank write bursts
system.mem_ctrls1.perBankRdBursts::9             9448                       # Per bank write bursts
system.mem_ctrls1.perBankRdBursts::10            9904                       # Per bank write bursts
system.mem_ctrls1.perBankRdBursts::11           10325                       # Per bank write bursts
system.mem_ctrls1.perBankRdBursts::12           10824                       # Per bank write bursts
system.mem_ctrls1.perBankRdBursts::13           10662                       # Per bank write bursts
system.mem_ctrls1.perBankRdBursts::14            9911                       # Per bank write bursts
system.mem_ctrls1.perBankRdBursts::15            9754                       # Per bank write bursts
system.mem_ctrls1.perBankWrBursts::0              929                       # Per bank write bursts
system.mem_ctrls1.perBankWrBursts::1              874                       # Per bank write bursts
system.mem_ctrls1.perBankWrBursts::2              937                       # Per bank write bursts
system.mem_ctrls1.perBankWrBursts::3              915                       # Per bank write bursts
system.mem_ctrls1.perBankWrBursts::4              875                       # Per bank write bursts
system.mem_ctrls1.perBankWrBursts::5              939                       # Per bank write bursts
system.mem_ctrls1.perBankWrBursts::6              801                       # Per bank write bursts
system.mem_ctrls1.perBankWrBursts::7              854                       # Per bank write bursts
system.mem_ctrls1.perBankWrBursts::8              920                       # Per bank write bursts
system.mem_ctrls1.perBankWrBursts::9              908                       # Per bank write bursts
system.mem_ctrls1.perBankWrBursts::10            1030                       # Per bank write bursts
system.mem_ctrls1.perBankWrBursts::11            1112                       # Per bank write bursts
system.mem_ctrls1.perBankWrBursts::12            1176                       # Per bank write bursts
system.mem_ctrls1.perBankWrBursts::13            1162                       # Per bank write bursts
system.mem_ctrls1.perBankWrBursts::14             968                       # Per bank write bursts
system.mem_ctrls1.perBankWrBursts::15             967                       # Per bank write bursts
system.mem_ctrls1.numRdRetry                        0                       # Number of times read queue was full causing retry
system.mem_ctrls1.numWrRetry                        0                       # Number of times write queue was full causing retry
system.mem_ctrls1.totGap                  15981506000                       # Total gap between requests
system.mem_ctrls1.readPktSize::0                    0                       # Read request sizes (log2)
system.mem_ctrls1.readPktSize::1                    0                       # Read request sizes (log2)
system.mem_ctrls1.readPktSize::2                    0                       # Read request sizes (log2)
system.mem_ctrls1.readPktSize::3                    0                       # Read request sizes (log2)
system.mem_ctrls1.readPktSize::4                    0                       # Read request sizes (log2)
system.mem_ctrls1.readPktSize::5                    0                       # Read request sizes (log2)
system.mem_ctrls1.readPktSize::6               155061                       # Read request sizes (log2)
system.mem_ctrls1.writePktSize::0                   0                       # Write request sizes (log2)
system.mem_ctrls1.writePktSize::1                   0                       # Write request sizes (log2)
system.mem_ctrls1.writePktSize::2                   0                       # Write request sizes (log2)
system.mem_ctrls1.writePktSize::3                   0                       # Write request sizes (log2)
system.mem_ctrls1.writePktSize::4                   0                       # Write request sizes (log2)
system.mem_ctrls1.writePktSize::5                   0                       # Write request sizes (log2)
system.mem_ctrls1.writePktSize::6               15390                       # Write request sizes (log2)
system.mem_ctrls1.rdQLenPdf::0                  75791                       # What read queue length does an incoming req see
system.mem_ctrls1.rdQLenPdf::1                  39689                       # What read queue length does an incoming req see
system.mem_ctrls1.rdQLenPdf::2                  20950                       # What read queue length does an incoming req see
system.mem_ctrls1.rdQLenPdf::3                  10641                       # What read queue length does an incoming req see
system.mem_ctrls1.rdQLenPdf::4                   4913                       # What read queue length does an incoming req see
system.mem_ctrls1.rdQLenPdf::5                   2034                       # What read queue length does an incoming req see
system.mem_ctrls1.rdQLenPdf::6                    726                       # What read queue length does an incoming req see
system.mem_ctrls1.rdQLenPdf::7                    237                       # What read queue length does an incoming req see
system.mem_ctrls1.rdQLenPdf::8                     56                       # What read queue length does an incoming req see
system.mem_ctrls1.rdQLenPdf::9                     11                       # What read queue length does an incoming req see
system.mem_ctrls1.rdQLenPdf::10                     2                       # What read queue length does an incoming req see
system.mem_ctrls1.rdQLenPdf::11                     1                       # What read queue length does an incoming req see
system.mem_ctrls1.rdQLenPdf::12                     2                       # What read queue length does an incoming req see
system.mem_ctrls1.rdQLenPdf::13                     0                       # What read queue length does an incoming req see
system.mem_ctrls1.rdQLenPdf::14                     0                       # What read queue length does an incoming req see
system.mem_ctrls1.rdQLenPdf::15                     0                       # What read queue length does an incoming req see
system.mem_ctrls1.rdQLenPdf::16                     0                       # What read queue length does an incoming req see
system.mem_ctrls1.rdQLenPdf::17                     0                       # What read queue length does an incoming req see
system.mem_ctrls1.rdQLenPdf::18                     0                       # What read queue length does an incoming req see
system.mem_ctrls1.rdQLenPdf::19                     0                       # What read queue length does an incoming req see
system.mem_ctrls1.rdQLenPdf::20                     0                       # What read queue length does an incoming req see
system.mem_ctrls1.rdQLenPdf::21                     0                       # What read queue length does an incoming req see
system.mem_ctrls1.rdQLenPdf::22                     0                       # What read queue length does an incoming req see
system.mem_ctrls1.rdQLenPdf::23                     0                       # What read queue length does an incoming req see
system.mem_ctrls1.rdQLenPdf::24                     0                       # What read queue length does an incoming req see
system.mem_ctrls1.rdQLenPdf::25                     0                       # What read queue length does an incoming req see
system.mem_ctrls1.rdQLenPdf::26                     0                       # What read queue length does an incoming req see
system.mem_ctrls1.rdQLenPdf::27                     0                       # What read queue length does an incoming req see
system.mem_ctrls1.rdQLenPdf::28                     0                       # What read queue length does an incoming req see
system.mem_ctrls1.rdQLenPdf::29                     0                       # What read queue length does an incoming req see
system.mem_ctrls1.rdQLenPdf::30                     0                       # What read queue length does an incoming req see
system.mem_ctrls1.rdQLenPdf::31                     0                       # What read queue length does an incoming req see
system.mem_ctrls1.wrQLenPdf::0                      1                       # What write queue length does an incoming req see
system.mem_ctrls1.wrQLenPdf::1                      1                       # What write queue length does an incoming req see
system.mem_ctrls1.wrQLenPdf::2                      1                       # What write queue length does an incoming req see
system.mem_ctrls1.wrQLenPdf::3                      1                       # What write queue length does an incoming req see
system.mem_ctrls1.wrQLenPdf::4                      1                       # What write queue length does an incoming req see
system.mem_ctrls1.wrQLenPdf::5                      1                       # What write queue length does an incoming req see
system.mem_ctrls1.wrQLenPdf::6                      1                       # What write queue length does an incoming req see
system.mem_ctrls1.wrQLenPdf::7                      1                       # What write queue length does an incoming req see
system.mem_ctrls1.wrQLenPdf::8                      1                       # What write queue length does an incoming req see
system.mem_ctrls1.wrQLenPdf::9                      1                       # What write queue length does an incoming req see
system.mem_ctrls1.wrQLenPdf::10                     1                       # What write queue length does an incoming req see
system.mem_ctrls1.wrQLenPdf::11                     1                       # What write queue length does an incoming req see
system.mem_ctrls1.wrQLenPdf::12                     1                       # What write queue length does an incoming req see
system.mem_ctrls1.wrQLenPdf::13                     1                       # What write queue length does an incoming req see
system.mem_ctrls1.wrQLenPdf::14                     1                       # What write queue length does an incoming req see
system.mem_ctrls1.wrQLenPdf::15                   277                       # What write queue length does an incoming req see
system.mem_ctrls1.wrQLenPdf::16                   328                       # What write queue length does an incoming req see
system.mem_ctrls1.wrQLenPdf::17                   657                       # What write queue length does an incoming req see
system.mem_ctrls1.wrQLenPdf::18                   889                       # What write queue length does an incoming req see
system.mem_ctrls1.wrQLenPdf::19                   941                       # What write queue length does an incoming req see
system.mem_ctrls1.wrQLenPdf::20                   950                       # What write queue length does an incoming req see
system.mem_ctrls1.wrQLenPdf::21                   954                       # What write queue length does an incoming req see
system.mem_ctrls1.wrQLenPdf::22                   954                       # What write queue length does an incoming req see
system.mem_ctrls1.wrQLenPdf::23                   948                       # What write queue length does an incoming req see
system.mem_ctrls1.wrQLenPdf::24                   945                       # What write queue length does an incoming req see
system.mem_ctrls1.wrQLenPdf::25                   950                       # What write queue length does an incoming req see
system.mem_ctrls1.wrQLenPdf::26                   944                       # What write queue length does an incoming req see
system.mem_ctrls1.wrQLenPdf::27                   950                       # What write queue length does an incoming req see
system.mem_ctrls1.wrQLenPdf::28                   934                       # What write queue length does an incoming req see
system.mem_ctrls1.wrQLenPdf::29                   927                       # What write queue length does an incoming req see
system.mem_ctrls1.wrQLenPdf::30                   937                       # What write queue length does an incoming req see
system.mem_ctrls1.wrQLenPdf::31                   938                       # What write queue length does an incoming req see
system.mem_ctrls1.wrQLenPdf::32                   925                       # What write queue length does an incoming req see
system.mem_ctrls1.wrQLenPdf::33                    22                       # What write queue length does an incoming req see
system.mem_ctrls1.wrQLenPdf::34                     5                       # What write queue length does an incoming req see
system.mem_ctrls1.wrQLenPdf::35                     0                       # What write queue length does an incoming req see
system.mem_ctrls1.wrQLenPdf::36                     0                       # What write queue length does an incoming req see
system.mem_ctrls1.wrQLenPdf::37                     0                       # What write queue length does an incoming req see
system.mem_ctrls1.wrQLenPdf::38                     0                       # What write queue length does an incoming req see
system.mem_ctrls1.wrQLenPdf::39                     0                       # What write queue length does an incoming req see
system.mem_ctrls1.wrQLenPdf::40                     0                       # What write queue length does an incoming req see
system.mem_ctrls1.wrQLenPdf::41                     0                       # What write queue length does an incoming req see
system.mem_ctrls1.wrQLenPdf::42                     0                       # What write queue length does an incoming req see
system.mem_ctrls1.wrQLenPdf::43                     0                       # What write queue length does an incoming req see
system.mem_ctrls1.wrQLenPdf::44                     0                       # What write queue length does an incoming req see
system.mem_ctrls1.wrQLenPdf::45                     0                       # What write queue length does an incoming req see
system.mem_ctrls1.wrQLenPdf::46                     0                       # What write queue length does an incoming req see
system.mem_ctrls1.wrQLenPdf::47                     0                       # What write queue length does an incoming req see
system.mem_ctrls1.wrQLenPdf::48                     0                       # What write queue length does an incoming req see
system.mem_ctrls1.wrQLenPdf::49                     0                       # What write queue length does an incoming req see
system.mem_ctrls1.wrQLenPdf::50                     0                       # What write queue length does an incoming req see
system.mem_ctrls1.wrQLenPdf::51                     0                       # What write queue length does an incoming req see
system.mem_ctrls1.wrQLenPdf::52                     0                       # What write queue length does an incoming req see
system.mem_ctrls1.wrQLenPdf::53                     0                       # What write queue length does an incoming req see
system.mem_ctrls1.wrQLenPdf::54                     0                       # What write queue length does an incoming req see
system.mem_ctrls1.wrQLenPdf::55                     0                       # What write queue length does an incoming req see
system.mem_ctrls1.wrQLenPdf::56                     0                       # What write queue length does an incoming req see
system.mem_ctrls1.wrQLenPdf::57                     0                       # What write queue length does an incoming req see
system.mem_ctrls1.wrQLenPdf::58                     0                       # What write queue length does an incoming req see
system.mem_ctrls1.wrQLenPdf::59                     0                       # What write queue length does an incoming req see
system.mem_ctrls1.wrQLenPdf::60                     0                       # What write queue length does an incoming req see
system.mem_ctrls1.wrQLenPdf::61                     0                       # What write queue length does an incoming req see
system.mem_ctrls1.wrQLenPdf::62                     0                       # What write queue length does an incoming req see
system.mem_ctrls1.wrQLenPdf::63                     0                       # What write queue length does an incoming req see
system.mem_ctrls1.bytesPerActivate::samples        95782                       # Bytes accessed per row activation
system.mem_ctrls1.bytesPerActivate::mean   113.869913                       # Bytes accessed per row activation
system.mem_ctrls1.bytesPerActivate::gmean    87.890421                       # Bytes accessed per row activation
system.mem_ctrls1.bytesPerActivate::stdev   124.237944                       # Bytes accessed per row activation
system.mem_ctrls1.bytesPerActivate::0-127        69198     72.25%     72.25% # Bytes accessed per row activation
system.mem_ctrls1.bytesPerActivate::128-255        16874     17.62%     89.86% # Bytes accessed per row activation
system.mem_ctrls1.bytesPerActivate::256-383         4047      4.23%     94.09% # Bytes accessed per row activation
system.mem_ctrls1.bytesPerActivate::384-511         2420      2.53%     96.61% # Bytes accessed per row activation
system.mem_ctrls1.bytesPerActivate::512-639         1525      1.59%     98.21% # Bytes accessed per row activation
system.mem_ctrls1.bytesPerActivate::640-767         1131      1.18%     99.39% # Bytes accessed per row activation
system.mem_ctrls1.bytesPerActivate::768-895          192      0.20%     99.59% # Bytes accessed per row activation
system.mem_ctrls1.bytesPerActivate::896-1023          184      0.19%     99.78% # Bytes accessed per row activation
system.mem_ctrls1.bytesPerActivate::1024-1151          211      0.22%    100.00% # Bytes accessed per row activation
system.mem_ctrls1.bytesPerActivate::total        95782                       # Bytes accessed per row activation
system.mem_ctrls1.rdPerTurnAround::samples          921                       # Reads before turning the bus around for writes
system.mem_ctrls1.rdPerTurnAround::mean    168.337676                       # Reads before turning the bus around for writes
system.mem_ctrls1.rdPerTurnAround::gmean    57.938794                       # Reads before turning the bus around for writes
system.mem_ctrls1.rdPerTurnAround::stdev  2132.878607                       # Reads before turning the bus around for writes
system.mem_ctrls1.rdPerTurnAround::0-2047          919     99.78%     99.78% # Reads before turning the bus around for writes
system.mem_ctrls1.rdPerTurnAround::2048-4095            1      0.11%     99.89% # Reads before turning the bus around for writes
system.mem_ctrls1.rdPerTurnAround::63488-65535            1      0.11%    100.00% # Reads before turning the bus around for writes
system.mem_ctrls1.rdPerTurnAround::total          921                       # Reads before turning the bus around for writes
system.mem_ctrls1.wrPerTurnAround::samples          921                       # Writes before turning the bus around for reads
system.mem_ctrls1.wrPerTurnAround::mean     16.685125                       # Writes before turning the bus around for reads
system.mem_ctrls1.wrPerTurnAround::gmean    16.658787                       # Writes before turning the bus around for reads
system.mem_ctrls1.wrPerTurnAround::stdev     0.951364                       # Writes before turning the bus around for reads
system.mem_ctrls1.wrPerTurnAround::16             593     64.39%     64.39% # Writes before turning the bus around for reads
system.mem_ctrls1.wrPerTurnAround::17              36      3.91%     68.30% # Writes before turning the bus around for reads
system.mem_ctrls1.wrPerTurnAround::18             284     30.84%     99.13% # Writes before turning the bus around for reads
system.mem_ctrls1.wrPerTurnAround::19               5      0.54%     99.67% # Writes before turning the bus around for reads
system.mem_ctrls1.wrPerTurnAround::20               3      0.33%    100.00% # Writes before turning the bus around for reads
system.mem_ctrls1.wrPerTurnAround::total          921                       # Writes before turning the bus around for reads
system.mem_ctrls1.totQLat                  4476150250                       # Total ticks spent queuing
system.mem_ctrls1.totMemAccLat             7383394000                       # Total ticks spent from burst creation until serviced by the DRAM
system.mem_ctrls1.totBusLat                 775265000                       # Total ticks spent in databus transfers
system.mem_ctrls1.avgQLat                    28868.52                       # Average queueing delay per DRAM burst
system.mem_ctrls1.avgBusLat                   5000.00                       # Average bus latency per DRAM burst
system.mem_ctrls1.avgMemAccLat               47618.52                       # Average memory access latency per DRAM burst
system.mem_ctrls1.avgRdBW                      620.91                       # Average DRAM read bandwidth in MiByte/s
system.mem_ctrls1.avgWrBW                       61.54                       # Average achieved write bandwidth in MiByte/s
system.mem_ctrls1.avgRdBWSys                   620.94                       # Average system read bandwidth in MiByte/s
system.mem_ctrls1.avgWrBWSys                    61.63                       # Average system write bandwidth in MiByte/s
system.mem_ctrls1.peakBW                     12800.00                       # Theoretical peak bandwidth in MiByte/s
system.mem_ctrls1.busUtil                        5.33                       # Data bus utilization in percentage
system.mem_ctrls1.busUtilRead                    4.85                       # Data bus utilization in percentage for reads
system.mem_ctrls1.busUtilWrite                   0.48                       # Data bus utilization in percentage for writes
system.mem_ctrls1.avgRdQLen                      1.54                       # Average read queue length when enqueuing
system.mem_ctrls1.avgWrQLen                     12.89                       # Average write queue length when enqueuing
system.mem_ctrls1.readRowHits                   71312                       # Number of row buffer hits during reads
system.mem_ctrls1.writeRowHits                   3324                       # Number of row buffer hits during writes
system.mem_ctrls1.readRowHitRate                45.99                       # Row buffer hit rate for reads
system.mem_ctrls1.writeRowHitRate               21.60                       # Row buffer hit rate for writes
system.mem_ctrls1.avgGap                     93760.12                       # Average gap between requests
system.mem_ctrls1.pageHitRate                   43.79                       # Row buffer hit rate, read and write combined
system.mem_ctrls1_0.actEnergy               317972760                       # Energy for activate commands per rank (pJ)
system.mem_ctrls1_0.preEnergy               169002735                       # Energy for precharge commands per rank (pJ)
system.mem_ctrls1_0.readEnergy              535278660                       # Energy for read commands per rank (pJ)
system.mem_ctrls1_0.writeEnergy              37187280                       # Energy for write commands per rank (pJ)
system.mem_ctrls1_0.refreshEnergy        1253250960.000000                       # Energy for refresh commands per rank (pJ)
system.mem_ctrls1_0.actBackEnergy          1410808140                       # Energy for active background per rank (pJ)
system.mem_ctrls1_0.preBackEnergy            32750400                       # Energy for precharge background per rank (pJ)
system.mem_ctrls1_0.actPowerDownEnergy     5330889090                       # Energy for active power-down per rank (pJ)
system.mem_ctrls1_0.prePowerDownEnergy      294390720                       # Energy for precharge power-down per rank (pJ)
system.mem_ctrls1_0.selfRefreshEnergy       101409255                       # Energy for self refresh per rank (pJ)
system.mem_ctrls1_0.totalEnergy            9483566910                       # Total energy per rank (pJ)
system.mem_ctrls1_0.averagePower           593.386505                       # Core power per rank (mW)
system.mem_ctrls1_0.totalIdleTime         12801314000                       # Total Idle time Per DRAM Rank
system.mem_ctrls1_0.memoryStateTime::IDLE     20362250                       # Time in different power states
system.mem_ctrls1_0.memoryStateTime::REF    530452000                       # Time in different power states
system.mem_ctrls1_0.memoryStateTime::SREF    344363500                       # Time in different power states
system.mem_ctrls1_0.memoryStateTime::PRE_PDN    766778750                       # Time in different power states
system.mem_ctrls1_0.memoryStateTime::ACT   2629569000                       # Time in different power states
system.mem_ctrls1_0.memoryStateTime::ACT_PDN  11690581000                       # Time in different power states
system.mem_ctrls1_1.actEnergy               365925000                       # Energy for activate commands per rank (pJ)
system.mem_ctrls1_1.preEnergy               194489955                       # Energy for precharge commands per rank (pJ)
system.mem_ctrls1_1.readEnergy              571799760                       # Energy for read commands per rank (pJ)
system.mem_ctrls1_1.writeEnergy              43028460                       # Energy for write commands per rank (pJ)
system.mem_ctrls1_1.refreshEnergy        1256938800.000000                       # Energy for refresh commands per rank (pJ)
system.mem_ctrls1_1.actBackEnergy          1511862870                       # Energy for active background per rank (pJ)
system.mem_ctrls1_1.preBackEnergy            33858720                       # Energy for precharge background per rank (pJ)
system.mem_ctrls1_1.actPowerDownEnergy     5244881790                       # Energy for active power-down per rank (pJ)
system.mem_ctrls1_1.prePowerDownEnergy      268736160                       # Energy for precharge power-down per rank (pJ)
system.mem_ctrls1_1.selfRefreshEnergy       114847185                       # Energy for self refresh per rank (pJ)
system.mem_ctrls1_1.totalEnergy            9606593460                       # Total energy per rank (pJ)
system.mem_ctrls1_1.averagePower           601.084273                       # Core power per rank (mW)
system.mem_ctrls1_1.totalIdleTime         12577963250                       # Total Idle time Per DRAM Rank
system.mem_ctrls1_1.memoryStateTime::IDLE     23229250                       # Time in different power states
system.mem_ctrls1_1.memoryStateTime::REF    532084000                       # Time in different power states
system.mem_ctrls1_1.memoryStateTime::SREF    376171000                       # Time in different power states
system.mem_ctrls1_1.memoryStateTime::PRE_PDN    699788250                       # Time in different power states
system.mem_ctrls1_1.memoryStateTime::ACT   2848672500                       # Time in different power states
system.mem_ctrls1_1.memoryStateTime::ACT_PDN  11502161500                       # Time in different power states
system.mem_ctrls2.pwrStateResidencyTicks::UNDEFINED  15982106500                       # Cumulative time (in ticks) in various power states
system.mem_ctrls2.bytes_read::ruby.dir_cntrl2      9936832                       # Number of bytes read from this memory
system.mem_ctrls2.bytes_read::total           9936832                       # Number of bytes read from this memory
system.mem_ctrls2.bytes_written::ruby.dir_cntrl2       990400                       # Number of bytes written to this memory
system.mem_ctrls2.bytes_written::total         990400                       # Number of bytes written to this memory
system.mem_ctrls2.num_reads::ruby.dir_cntrl2       155263                       # Number of read requests responded to by this memory
system.mem_ctrls2.num_reads::total             155263                       # Number of read requests responded to by this memory
system.mem_ctrls2.num_writes::ruby.dir_cntrl2        15475                       # Number of write requests responded to by this memory
system.mem_ctrls2.num_writes::total             15475                       # Number of write requests responded to by this memory
system.mem_ctrls2.bw_read::ruby.dir_cntrl2    621747327                       # Total read bandwidth from this memory (bytes/s)
system.mem_ctrls2.bw_read::total            621747327                       # Total read bandwidth from this memory (bytes/s)
system.mem_ctrls2.bw_write::ruby.dir_cntrl2     61969303                       # Write bandwidth from this memory (bytes/s)
system.mem_ctrls2.bw_write::total            61969303                       # Write bandwidth from this memory (bytes/s)
system.mem_ctrls2.bw_total::ruby.dir_cntrl2    683716630                       # Total bandwidth to/from this memory (bytes/s)
system.mem_ctrls2.bw_total::total           683716630                       # Total bandwidth to/from this memory (bytes/s)
system.mem_ctrls2.readReqs                     155263                       # Number of read requests accepted
system.mem_ctrls2.avgNetLat                      0.00                       # Average network latency to DRAM controller
system.mem_ctrls2.writeReqs                     15475                       # Number of write requests accepted
system.mem_ctrls2.readBursts                   155263                       # Number of DRAM read bursts, including those serviced by the write queue
system.mem_ctrls2.writeBursts                   15475                       # Number of DRAM write bursts, including those merged in the write queue
system.mem_ctrls2.bytesReadDRAM               9936512                       # Total number of bytes read from DRAM
system.mem_ctrls2.bytesReadWrQ                    320                       # Total number of bytes read from write queue
system.mem_ctrls2.bytesWritten                 988928                       # Total number of bytes written to DRAM
system.mem_ctrls2.bytesReadSys                9936832                       # Total read bytes from the system interface side
system.mem_ctrls2.bytesWrittenSys              990400                       # Total written bytes from the system interface side
system.mem_ctrls2.servicedByWrQ                     5                       # Number of DRAM read bursts serviced by the write queue
system.mem_ctrls2.mergedWrBursts                    0                       # Number of DRAM write bursts merged with an existing one
system.mem_ctrls2.neitherReadNorWriteReqs            0                       # Number of requests that are neither read nor write
system.mem_ctrls2.perBankRdBursts::0             9600                       # Per bank write bursts
system.mem_ctrls2.perBankRdBursts::1             9382                       # Per bank write bursts
system.mem_ctrls2.perBankRdBursts::2             9638                       # Per bank write bursts
system.mem_ctrls2.perBankRdBursts::3             9248                       # Per bank write bursts
system.mem_ctrls2.perBankRdBursts::4             9147                       # Per bank write bursts
system.mem_ctrls2.perBankRdBursts::5             9347                       # Per bank write bursts
system.mem_ctrls2.perBankRdBursts::6             9178                       # Per bank write bursts
system.mem_ctrls2.perBankRdBursts::7             9356                       # Per bank write bursts
system.mem_ctrls2.perBankRdBursts::8             9305                       # Per bank write bursts
system.mem_ctrls2.perBankRdBursts::9             9449                       # Per bank write bursts
system.mem_ctrls2.perBankRdBursts::10            9925                       # Per bank write bursts
system.mem_ctrls2.perBankRdBursts::11           10311                       # Per bank write bursts
system.mem_ctrls2.perBankRdBursts::12           10863                       # Per bank write bursts
system.mem_ctrls2.perBankRdBursts::13           10737                       # Per bank write bursts
system.mem_ctrls2.perBankRdBursts::14           10004                       # Per bank write bursts
system.mem_ctrls2.perBankRdBursts::15            9768                       # Per bank write bursts
system.mem_ctrls2.perBankWrBursts::0              948                       # Per bank write bursts
system.mem_ctrls2.perBankWrBursts::1              855                       # Per bank write bursts
system.mem_ctrls2.perBankWrBursts::2              965                       # Per bank write bursts
system.mem_ctrls2.perBankWrBursts::3              895                       # Per bank write bursts
system.mem_ctrls2.perBankWrBursts::4              900                       # Per bank write bursts
system.mem_ctrls2.perBankWrBursts::5              927                       # Per bank write bursts
system.mem_ctrls2.perBankWrBursts::6              793                       # Per bank write bursts
system.mem_ctrls2.perBankWrBursts::7              826                       # Per bank write bursts
system.mem_ctrls2.perBankWrBursts::8              925                       # Per bank write bursts
system.mem_ctrls2.perBankWrBursts::9              903                       # Per bank write bursts
system.mem_ctrls2.perBankWrBursts::10            1015                       # Per bank write bursts
system.mem_ctrls2.perBankWrBursts::11            1109                       # Per bank write bursts
system.mem_ctrls2.perBankWrBursts::12            1211                       # Per bank write bursts
system.mem_ctrls2.perBankWrBursts::13            1204                       # Per bank write bursts
system.mem_ctrls2.perBankWrBursts::14            1010                       # Per bank write bursts
system.mem_ctrls2.perBankWrBursts::15             966                       # Per bank write bursts
system.mem_ctrls2.numRdRetry                        0                       # Number of times read queue was full causing retry
system.mem_ctrls2.numWrRetry                        0                       # Number of times write queue was full causing retry
system.mem_ctrls2.totGap                  15981155500                       # Total gap between requests
system.mem_ctrls2.readPktSize::0                    0                       # Read request sizes (log2)
system.mem_ctrls2.readPktSize::1                    0                       # Read request sizes (log2)
system.mem_ctrls2.readPktSize::2                    0                       # Read request sizes (log2)
system.mem_ctrls2.readPktSize::3                    0                       # Read request sizes (log2)
system.mem_ctrls2.readPktSize::4                    0                       # Read request sizes (log2)
system.mem_ctrls2.readPktSize::5                    0                       # Read request sizes (log2)
system.mem_ctrls2.readPktSize::6               155263                       # Read request sizes (log2)
system.mem_ctrls2.writePktSize::0                   0                       # Write request sizes (log2)
system.mem_ctrls2.writePktSize::1                   0                       # Write request sizes (log2)
system.mem_ctrls2.writePktSize::2                   0                       # Write request sizes (log2)
system.mem_ctrls2.writePktSize::3                   0                       # Write request sizes (log2)
system.mem_ctrls2.writePktSize::4                   0                       # Write request sizes (log2)
system.mem_ctrls2.writePktSize::5                   0                       # Write request sizes (log2)
system.mem_ctrls2.writePktSize::6               15475                       # Write request sizes (log2)
system.mem_ctrls2.rdQLenPdf::0                  75550                       # What read queue length does an incoming req see
system.mem_ctrls2.rdQLenPdf::1                  39157                       # What read queue length does an incoming req see
system.mem_ctrls2.rdQLenPdf::2                  20963                       # What read queue length does an incoming req see
system.mem_ctrls2.rdQLenPdf::3                  10829                       # What read queue length does an incoming req see
system.mem_ctrls2.rdQLenPdf::4                   5138                       # What read queue length does an incoming req see
system.mem_ctrls2.rdQLenPdf::5                   2318                       # What read queue length does an incoming req see
system.mem_ctrls2.rdQLenPdf::6                    916                       # What read queue length does an incoming req see
system.mem_ctrls2.rdQLenPdf::7                    257                       # What read queue length does an incoming req see
system.mem_ctrls2.rdQLenPdf::8                     89                       # What read queue length does an incoming req see
system.mem_ctrls2.rdQLenPdf::9                     28                       # What read queue length does an incoming req see
system.mem_ctrls2.rdQLenPdf::10                    11                       # What read queue length does an incoming req see
system.mem_ctrls2.rdQLenPdf::11                     2                       # What read queue length does an incoming req see
system.mem_ctrls2.rdQLenPdf::12                     0                       # What read queue length does an incoming req see
system.mem_ctrls2.rdQLenPdf::13                     0                       # What read queue length does an incoming req see
system.mem_ctrls2.rdQLenPdf::14                     0                       # What read queue length does an incoming req see
system.mem_ctrls2.rdQLenPdf::15                     0                       # What read queue length does an incoming req see
system.mem_ctrls2.rdQLenPdf::16                     0                       # What read queue length does an incoming req see
system.mem_ctrls2.rdQLenPdf::17                     0                       # What read queue length does an incoming req see
system.mem_ctrls2.rdQLenPdf::18                     0                       # What read queue length does an incoming req see
system.mem_ctrls2.rdQLenPdf::19                     0                       # What read queue length does an incoming req see
system.mem_ctrls2.rdQLenPdf::20                     0                       # What read queue length does an incoming req see
system.mem_ctrls2.rdQLenPdf::21                     0                       # What read queue length does an incoming req see
system.mem_ctrls2.rdQLenPdf::22                     0                       # What read queue length does an incoming req see
system.mem_ctrls2.rdQLenPdf::23                     0                       # What read queue length does an incoming req see
system.mem_ctrls2.rdQLenPdf::24                     0                       # What read queue length does an incoming req see
system.mem_ctrls2.rdQLenPdf::25                     0                       # What read queue length does an incoming req see
system.mem_ctrls2.rdQLenPdf::26                     0                       # What read queue length does an incoming req see
system.mem_ctrls2.rdQLenPdf::27                     0                       # What read queue length does an incoming req see
system.mem_ctrls2.rdQLenPdf::28                     0                       # What read queue length does an incoming req see
system.mem_ctrls2.rdQLenPdf::29                     0                       # What read queue length does an incoming req see
system.mem_ctrls2.rdQLenPdf::30                     0                       # What read queue length does an incoming req see
system.mem_ctrls2.rdQLenPdf::31                     0                       # What read queue length does an incoming req see
system.mem_ctrls2.wrQLenPdf::0                      1                       # What write queue length does an incoming req see
system.mem_ctrls2.wrQLenPdf::1                      1                       # What write queue length does an incoming req see
system.mem_ctrls2.wrQLenPdf::2                      1                       # What write queue length does an incoming req see
system.mem_ctrls2.wrQLenPdf::3                      1                       # What write queue length does an incoming req see
system.mem_ctrls2.wrQLenPdf::4                      1                       # What write queue length does an incoming req see
system.mem_ctrls2.wrQLenPdf::5                      1                       # What write queue length does an incoming req see
system.mem_ctrls2.wrQLenPdf::6                      1                       # What write queue length does an incoming req see
system.mem_ctrls2.wrQLenPdf::7                      1                       # What write queue length does an incoming req see
system.mem_ctrls2.wrQLenPdf::8                      1                       # What write queue length does an incoming req see
system.mem_ctrls2.wrQLenPdf::9                      1                       # What write queue length does an incoming req see
system.mem_ctrls2.wrQLenPdf::10                     1                       # What write queue length does an incoming req see
system.mem_ctrls2.wrQLenPdf::11                     1                       # What write queue length does an incoming req see
system.mem_ctrls2.wrQLenPdf::12                     1                       # What write queue length does an incoming req see
system.mem_ctrls2.wrQLenPdf::13                     1                       # What write queue length does an incoming req see
system.mem_ctrls2.wrQLenPdf::14                     1                       # What write queue length does an incoming req see
system.mem_ctrls2.wrQLenPdf::15                   248                       # What write queue length does an incoming req see
system.mem_ctrls2.wrQLenPdf::16                   308                       # What write queue length does an incoming req see
system.mem_ctrls2.wrQLenPdf::17                   643                       # What write queue length does an incoming req see
system.mem_ctrls2.wrQLenPdf::18                   913                       # What write queue length does an incoming req see
system.mem_ctrls2.wrQLenPdf::19                   946                       # What write queue length does an incoming req see
system.mem_ctrls2.wrQLenPdf::20                   958                       # What write queue length does an incoming req see
system.mem_ctrls2.wrQLenPdf::21                   958                       # What write queue length does an incoming req see
system.mem_ctrls2.wrQLenPdf::22                   959                       # What write queue length does an incoming req see
[...]
system.ruby.L2Cache_Controller.SS.L2_Replacement_clean |         519      6.00%      6.00% |         576      6.66%     12.66% |         582      6.73%     19.39% |         498      5.76%     25.14% |         546      6.31%     31.45% |         584      6.75%     38.20% |         559      6.46%     44.67% |         536      6.20%     50.86% |         581      6.72%     57.58% |         445      5.14%     62.72% |         480      5.55%     68.27% |         528      6.10%     74.37% |         559      6.46%     80.83% |         547      6.32%     87.16% |         595      6.88%     94.04% |         516      5.96%    100.00%
system.ruby.L2Cache_Controller.SS.L2_Replacement_clean::total         8651                      
system.ruby.L2Cache_Controller.M.L1_GET_INSTR |          14     25.00%     25.00% |           0      0.00%     25.00% |           0      0.00%     25.00% |           0      0.00%     25.00% |           0      0.00%     25.00% |           0      0.00%     25.00% |           0      0.00%     25.00% |           0      0.00%     25.00% |          14     25.00%     50.00% |          14     25.00%     75.00% |           0      0.00%     75.00% |           0      0.00%     75.00% |           0      0.00%     75.00% |           0      0.00%     75.00% |          14     25.00%    100.00% |           0      0.00%    100.00%
system.ruby.L2Cache_Controller.M.L1_GET_INSTR::total           56                      
system.ruby.L2Cache_Controller.M.L1_GETS |       10216      6.17%      6.17% |       10435      6.30%     12.47% |       10127      6.11%     18.58% |       10410      6.28%     24.87% |       10117      6.11%     30.97% |        9980      6.03%     37.00% |       10049      6.07%     43.06% |       10244      6.18%     49.25% |       10316      6.23%     55.48% |       10091      6.09%     61.57% |       10290      6.21%     67.78% |       11253      6.79%     74.57% |       10713      6.47%     81.04% |       10797      6.52%     87.56% |       10820      6.53%     94.09% |        9785      5.91%    100.00%
system.ruby.L2Cache_Controller.M.L1_GETS::total       165643                      
system.ruby.L2Cache_Controller.M.L1_GETX |        1245      6.36%      6.36% |        1310      6.69%     13.05% |        1257      6.42%     19.47% |        1177      6.01%     25.48% |        1249      6.38%     31.86% |        1172      5.99%     37.85% |        1139      5.82%     43.67% |        1309      6.69%     50.36% |        1203      6.14%     56.50% |        1246      6.36%     62.86% |        1242      6.34%     69.21% |        1205      6.16%     75.36% |        1191      6.08%     81.45% |        1141      5.83%     87.28% |        1224      6.25%     93.53% |        1267      6.47%    100.00%
system.ruby.L2Cache_Controller.M.L1_GETX::total        19577                      
system.ruby.L2Cache_Controller.M.L2_Replacement |        3917      6.38%      6.38% |        3836      6.25%     12.63% |        3826      6.23%     18.86% |        3852      6.27%     25.13% |        3781      6.16%     31.29% |        3811      6.21%     37.49% |        3794      6.18%     43.67% |        3829      6.24%     49.91% |        3868      6.30%     56.21% |        3751      6.11%     62.31% |        3852      6.27%     68.59% |        3790      6.17%     74.76% |        3865      6.29%     81.05% |        3885      6.33%     87.38% |        3889      6.33%     93.71% |        3861      6.29%    100.00%
system.ruby.L2Cache_Controller.M.L2_Replacement::total        61407                      
system.ruby.L2Cache_Controller.M.L2_Replacement_clean |        2778      6.30%      6.30% |        2657      6.03%     12.33% |        2618      5.94%     18.28% |        2739      6.22%     24.49% |        2677      6.08%     30.57% |        2761      6.27%     36.83% |        2744      6.23%     43.06% |        2783      6.32%     49.38% |        2826      6.41%     55.79% |        2686      6.10%     61.89% |        2757      6.26%     68.14% |        2787      6.33%     74.47% |        2810      6.38%     80.85% |        2830      6.42%     87.27% |        2807      6.37%     93.64% |        2803      6.36%    100.00%
system.ruby.L2Cache_Controller.M.L2_Replacement_clean::total        44063                      
system.ruby.L2Cache_Controller.MT.L1_GETS |          70      3.99%      3.99% |          70      3.99%      7.97% |          98      5.58%     13.55% |          98      5.58%     19.13% |          98      5.58%     24.72% |         140      7.97%     32.69% |         140      7.97%     40.66% |         140      7.97%     48.63% |         136      7.74%     56.38% |         136      7.74%     64.12% |         136      7.74%     71.87% |         130      7.40%     79.27% |         112      6.38%     85.65% |         112      6.38%     92.03% |          70      3.99%     96.01% |          70      3.99%    100.00%
system.ruby.L2Cache_Controller.MT.L1_GETS::total         1756                      
system.ruby.L2Cache_Controller.MT.L1_GETX |           0      0.00%      0.00% |           0      0.00%      0.00% |           0      0.00%      0.00% |           0      0.00%      0.00% |           0      0.00%      0.00% |           0      0.00%      0.00% |           0      0.00%      0.00% |           0      0.00%      0.00% |           2     18.18%     18.18% |           2     18.18%     36.36% |           2     18.18%     54.55% |           5     45.45%    100.00% |           0      0.00%    100.00% |           0      0.00%    100.00% |           0      0.00%    100.00% |           0      0.00%    100.00%
system.ruby.L2Cache_Controller.MT.L1_GETX::total           11                      
system.ruby.L2Cache_Controller.MT.L1_PUTX |       48102      6.25%      6.25% |       48203      6.26%     12.50% |       47643      6.19%     18.69% |       48164      6.25%     24.94% |       47711      6.19%     31.14% |       47662      6.19%     37.33% |       47764      6.20%     43.53% |       48175      6.25%     49.78% |       48199      6.26%     56.04% |       47750      6.20%     62.24% |       48106      6.25%     68.49% |       49032      6.37%     74.85% |       48685      6.32%     81.17% |       48718      6.33%     87.50% |       48643      6.32%     93.81% |       47650      6.19%    100.00%
system.ruby.L2Cache_Controller.MT.L1_PUTX::total       770207                      
system.ruby.L2Cache_Controller.MT.L2_Replacement |           4      3.96%      3.96% |           7      6.93%     10.89% |          13     12.87%     23.76% |           9      8.91%     32.67% |           5      4.95%     37.62% |          10      9.90%     47.52% |           7      6.93%     54.46% |           5      4.95%     59.41% |           8      7.92%     67.33% |           6      5.94%     73.27% |           7      6.93%     80.20% |           8      7.92%     88.12% |           4      3.96%     92.08% |           2      1.98%     94.06% |           6      5.94%    100.00% |           0      0.00%    100.00%
system.ruby.L2Cache_Controller.MT.L2_Replacement::total          101                      
system.ruby.L2Cache_Controller.MT.L2_Replacement_clean |          13      4.39%      4.39% |          20      6.76%     11.15% |          17      5.74%     16.89% |          17      5.74%     22.64% |          16      5.41%     28.04% |          16      5.41%     33.45% |          21      7.09%     40.54% |          17      5.74%     46.28% |          13      4.39%     50.68% |          18      6.08%     56.76% |          21      7.09%     63.85% |          15      5.07%     68.92% |          23      7.77%     76.69% |          27      9.12%     85.81% |          19      6.42%     92.23% |          23      7.77%    100.00%
system.ruby.L2Cache_Controller.MT.L2_Replacement_clean::total          296                      
system.ruby.L2Cache_Controller.M_I.Mem_Ack |        7233      6.31%      6.31% |        7098      6.20%     12.51% |        7056      6.16%     18.67% |        7119      6.21%     24.88% |        7027      6.13%     31.02% |        7186      6.27%     37.29% |        7128      6.22%     43.51% |        7174      6.26%     49.77% |        7300      6.37%     56.15% |        6908      6.03%     62.18% |        7122      6.22%     68.39% |        7132      6.23%     74.62% |        7263      6.34%     80.96% |        7292      6.37%     87.32% |        7317      6.39%     93.71% |        7205      6.29%    100.00%
system.ruby.L2Cache_Controller.M_I.Mem_Ack::total       114560                      
system.ruby.L2Cache_Controller.MT_I.WB_Data |           1      2.56%      2.56% |           5     12.82%     15.38% |           7     17.95%     33.33% |           3      7.69%     41.03% |           1      2.56%     43.59% |           5     12.82%     56.41% |           4     10.26%     66.67% |           1      2.56%     69.23% |           2      5.13%     74.36% |           3      7.69%     82.05% |           2      5.13%     87.18% |           2      5.13%     92.31% |           1      2.56%     94.87% |           0      0.00%     94.87% |           2      5.13%    100.00% |           0      0.00%    100.00%
system.ruby.L2Cache_Controller.MT_I.WB_Data::total           39                      
system.ruby.L2Cache_Controller.MT_I.Ack_all |           3      4.84%      4.84% |           2      3.23%      8.06% |           6      9.68%     17.74% |           6      9.68%     27.42% |           4      6.45%     33.87% |           5      8.06%     41.94% |           3      4.84%     46.77% |           4      6.45%     53.23% |           6      9.68%     62.90% |           3      4.84%     67.74% |           5      8.06%     75.81% |           6      9.68%     85.48% |           3      4.84%     90.32% |           2      3.23%     93.55% |           4      6.45%    100.00% |           0      0.00%    100.00%
system.ruby.L2Cache_Controller.MT_I.Ack_all::total           62                      
system.ruby.L2Cache_Controller.MCT_I.WB_Data |          12      4.49%      4.49% |          17      6.37%     10.86% |          17      6.37%     17.23% |          15      5.62%     22.85% |          13      4.87%     27.72% |          14      5.24%     32.96% |          19      7.12%     40.07% |          13      4.87%     44.94% |          12      4.49%     49.44% |          17      6.37%     55.81% |          20      7.49%     63.30% |          15      5.62%     68.91% |          20      7.49%     76.40% |          25      9.36%     85.77% |          16      5.99%     91.76% |          22      8.24%    100.00%
system.ruby.L2Cache_Controller.MCT_I.WB_Data::total          267                      
system.ruby.L2Cache_Controller.MCT_I.Ack_all |           1      3.45%      3.45% |           3     10.34%     13.79% |           0      0.00%     13.79% |           2      6.90%     20.69% |           3     10.34%     31.03% |           2      6.90%     37.93% |           2      6.90%     44.83% |           4     13.79%     58.62% |           1      3.45%     62.07% |           1      3.45%     65.52% |           1      3.45%     68.97% |           0      0.00%     68.97% |           3     10.34%     79.31% |           2      6.90%     86.21% |           3     10.34%     96.55% |           1      3.45%    100.00%
system.ruby.L2Cache_Controller.MCT_I.Ack_all::total           29                      
system.ruby.L2Cache_Controller.I_I.Ack_all |         519      6.00%      6.00% |         576      6.66%     12.66% |         582      6.73%     19.39% |         498      5.76%     25.14% |         546      6.31%     31.45% |         584      6.75%     38.20% |         559      6.46%     44.67% |         536      6.20%     50.86% |         581      6.72%     57.58% |         445      5.14%     62.72% |         480      5.55%     68.27% |         528      6.10%     74.37% |         559      6.46%     80.83% |         547      6.32%     87.16% |         595      6.88%     94.04% |         516      5.96%    100.00%
system.ruby.L2Cache_Controller.I_I.Ack_all::total         8651                      
system.ruby.L2Cache_Controller.S_I.Ack   |           2      4.76%      4.76% |           2      4.76%      9.52% |           0      0.00%      9.52% |           4      9.52%     19.05% |           2      4.76%     23.81% |           4      9.52%     33.33% |           3      7.14%     40.48% |           4      9.52%     50.00% |           4      9.52%     59.52% |           2      4.76%     64.29% |           5     11.90%     76.19% |           4      9.52%     85.71% |           2      4.76%     90.48% |           1      2.38%     92.86% |           1      2.38%     95.24% |           2      4.76%    100.00%
system.ruby.L2Cache_Controller.S_I.Ack::total           42                      
system.ruby.L2Cache_Controller.S_I.Ack_all |           2      4.76%      4.76% |           2      4.76%      9.52% |           0      0.00%      9.52% |           4      9.52%     19.05% |           2      4.76%     23.81% |           4      9.52%     33.33% |           3      7.14%     40.48% |           4      9.52%     50.00% |           4      9.52%     59.52% |           2      4.76%     64.29% |           5     11.90%     76.19% |           4      9.52%     85.71% |           2      4.76%     90.48% |           1      2.38%     92.86% |           1      2.38%     95.24% |           2      4.76%    100.00%
system.ruby.L2Cache_Controller.S_I.Ack_all::total           42                      
system.ruby.L2Cache_Controller.ISS.Mem_Data |       29229      6.28%      6.28% |       28948      6.21%     12.49% |       28710      6.16%     18.65% |       29094      6.25%     24.90% |       28854      6.19%     31.10% |       29050      6.24%     37.33% |       29111      6.25%     43.58% |       29158      6.26%     49.84% |       29242      6.28%     56.12% |       29023      6.23%     62.35% |       29153      6.26%     68.61% |       29192      6.27%     74.88% |       29375      6.31%     81.18% |       29344      6.30%     87.48% |       29148      6.26%     93.74% |       29147      6.26%    100.00%
system.ruby.L2Cache_Controller.ISS.Mem_Data::total       465778                      
system.ruby.L2Cache_Controller.IS.Mem_Data |        1345      6.38%      6.38% |        1350      6.41%     12.79% |        1487      7.06%     19.85% |        1278      6.07%     25.91% |        1341      6.36%     32.28% |        1333      6.33%     38.61% |        1272      6.04%     44.64% |        1288      6.11%     50.76% |        1356      6.44%     57.19% |        1163      5.52%     62.71% |        1247      5.92%     68.63% |        1260      5.98%     74.61% |        1222      5.80%     80.41% |        1294      6.14%     86.55% |        1501      7.12%     93.68% |        1332      6.32%    100.00%
system.ruby.L2Cache_Controller.IS.Mem_Data::total        21069                      
system.ruby.L2Cache_Controller.IM.Mem_Data |        8336      6.21%      6.21% |        8434      6.28%     12.50% |        8470      6.31%     18.81% |        8421      6.27%     25.08% |        8427      6.28%     31.36% |        8412      6.27%     37.63% |        8417      6.27%     43.90% |        8413      6.27%     50.17% |        8375      6.24%     56.41% |        8339      6.21%     62.62% |        8372      6.24%     68.86% |        8334      6.21%     75.07% |        8343      6.22%     81.28% |        8371      6.24%     87.52% |        8375      6.24%     93.76% |        8372      6.24%    100.00%
system.ruby.L2Cache_Controller.IM.Mem_Data::total       134211                      
system.ruby.L2Cache_Controller.SS_MB.Exclusive_Unblock |          42      3.94%      3.94% |          42      3.94%      7.87% |          70      6.56%     14.43% |          56      5.25%     19.68% |          56      5.25%     24.93% |          84      7.87%     32.80% |          84      7.87%     40.67% |          84      7.87%     48.55% |          82      7.69%     56.23% |          82      7.69%     63.92% |          82      7.69%     71.60% |          79      7.40%     79.01% |          70      6.56%     85.57% |          70      6.56%     92.13% |          42      3.94%     96.06% |          42      3.94%    100.00%
system.ruby.L2Cache_Controller.SS_MB.Exclusive_Unblock::total         1067                      
system.ruby.L2Cache_Controller.MT_MB.Exclusive_Unblock |       49026      6.24%      6.24% |       49127      6.26%     12.50% |       48564      6.18%     18.68% |       49102      6.25%     24.94% |       48647      6.20%     31.13% |       48614      6.19%     37.32% |       48716      6.20%     43.53% |       49124      6.26%     49.78% |       49138      6.26%     56.04% |       48701      6.20%     62.24% |       49059      6.25%     68.49% |       49989      6.37%     74.86% |       49622      6.32%     81.18% |       49653      6.32%     87.50% |       49567      6.31%     93.81% |       48571      6.19%    100.00%
system.ruby.L2Cache_Controller.MT_MB.Exclusive_Unblock::total       785220                      
system.ruby.L2Cache_Controller.MT_IIB.WB_Data |          69      3.99%      3.99% |          70      4.04%      8.03% |          96      5.55%     13.58% |          96      5.55%     19.12% |          96      5.55%     24.67% |         139      8.03%     32.70% |         137      7.91%     40.61% |         139      8.03%     48.64% |         136      7.86%     56.50% |         134      7.74%     64.24% |         133      7.68%     71.92% |         126      7.28%     79.20% |         109      6.30%     85.50% |         111      6.41%     91.91% |          70      4.04%     95.96% |          70      4.04%    100.00%
system.ruby.L2Cache_Controller.MT_IIB.WB_Data::total         1731                      
system.ruby.L2Cache_Controller.MT_IIB.Unblock |           1      4.00%      4.00% |           0      0.00%      4.00% |           2      8.00%     12.00% |           2      8.00%     20.00% |           2      8.00%     28.00% |           1      4.00%     32.00% |           3     12.00%     44.00% |           1      4.00%     48.00% |           0      0.00%     48.00% |           2      8.00%     56.00% |           3     12.00%     68.00% |           4     16.00%     84.00% |           3     12.00%     96.00% |           1      4.00%    100.00% |           0      0.00%    100.00% |           0      0.00%    100.00%
system.ruby.L2Cache_Controller.MT_IIB.Unblock::total           25                      
system.ruby.L2Cache_Controller.MT_IB.WB_Data |           1      4.00%      4.00% |           0      0.00%      4.00% |           2      8.00%     12.00% |           2      8.00%     20.00% |           2      8.00%     28.00% |           1      4.00%     32.00% |           3     12.00%     44.00% |           1      4.00%     48.00% |           0      0.00%     48.00% |           2      8.00%     56.00% |           3     12.00%     68.00% |           4     16.00%     84.00% |           3     12.00%     96.00% |           1      4.00%    100.00% |           0      0.00%    100.00% |           0      0.00%    100.00%
system.ruby.L2Cache_Controller.MT_IB.WB_Data::total           25                      
system.ruby.L2Cache_Controller.MT_SB.Unblock |          69      3.99%      3.99% |          70      4.04%      8.03% |          96      5.55%     13.58% |          96      5.55%     19.12% |          96      5.55%     24.67% |         139      8.03%     32.70% |         137      7.91%     40.61% |         139      8.03%     48.64% |         136      7.86%     56.50% |         134      7.74%     64.24% |         133      7.68%     71.92% |         126      7.28%     79.20% |         109      6.30%     85.50% |         111      6.41%     91.91% |          70      4.04%     95.96% |          70      4.04%    100.00%
system.ruby.L2Cache_Controller.MT_SB.Unblock::total         1731                      

---------- End Simulation Statistics   ----------
