
---------- Begin Simulation Statistics ----------
sim_seconds                                  0.015955                       # Number of seconds simulated
sim_ticks                                 15954842500                       # Number of ticks simulated
final_tick                                15954842500                       # Number of ticks from beginning of simulation (restored from checkpoints and never reset)
sim_freq                                 1000000000000                       # Frequency of simulated ticks
host_inst_rate                                  55672                       # Simulator instruction rate (inst/s)
host_op_rate                                    96568                       # Simulator op (including micro ops) rate (op/s)
host_tick_rate                               19301612                       # Simulator tick rate (ticks/s)
host_mem_usage                                2042184                       # Number of bytes of host memory used
host_seconds                                   826.61                       # Real time elapsed on the host
sim_insts                                    46018712                       # Number of instructions simulated
sim_ops                                      79823588                       # Number of ops (including micro ops) simulated
system.voltage_domain.voltage                       1                       # Voltage in Volts
system.clk_domain.clock                          1000                       # Clock period in ticks
system.mem_ctrls0.pwrStateResidencyTicks::UNDEFINED  15954842500                       # Cumulative time (in ticks) in various power states
system.mem_ctrls0.bytes_read::ruby.dir_cntrl0     10084288                       # Number of bytes read from this memory
system.mem_ctrls0.bytes_read::total          10084288                       # Number of bytes read from this memory
system.mem_ctrls0.bytes_written::ruby.dir_cntrl0      1020288                       # Number of bytes written to this memory
system.mem_ctrls0.bytes_written::total        1020288                       # Number of bytes written to this memory
system.mem_ctrls0.num_reads::ruby.dir_cntrl0       157567                       # Number of read requests responded to by this memory
system.mem_ctrls0.num_reads::total             157567                       # Number of read requests responded to by this memory
system.mem_ctrls0.num_writes::ruby.dir_cntrl0        15942                       # Number of write requests responded to by this memory
system.mem_ctrls0.num_writes::total             15942                       # Number of write requests responded to by this memory
system.mem_ctrls0.bw_read::ruby.dir_cntrl0    632051868                       # Total read bandwidth from this memory (bytes/s)
system.mem_ctrls0.bw_read::total            632051868                       # Total read bandwidth from this memory (bytes/s)
system.mem_ctrls0.bw_write::ruby.dir_cntrl0     63948485                       # Write bandwidth from this memory (bytes/s)
system.mem_ctrls0.bw_write::total            63948485                       # Write bandwidth from this memory (bytes/s)
system.mem_ctrls0.bw_total::ruby.dir_cntrl0    696000352                       # Total bandwidth to/from this memory (bytes/s)
system.mem_ctrls0.bw_total::total           696000352                       # Total bandwidth to/from this memory (bytes/s)
system.mem_ctrls0.readReqs                     157567                       # Number of read requests accepted
system.mem_ctrls0.avgNetLat                      0.00                       # Average network latency to DRAM controller
system.mem_ctrls0.writeReqs                     15942                       # Number of write requests accepted
system.mem_ctrls0.readBursts                   157567                       # Number of DRAM read bursts, including those serviced by the write queue
system.mem_ctrls0.writeBursts                   15942                       # Number of DRAM write bursts, including those merged in the write queue
system.mem_ctrls0.bytesReadDRAM              10083904                       # Total number of bytes read from DRAM
system.mem_ctrls0.bytesReadWrQ                    384                       # Total number of bytes read from write queue
system.mem_ctrls0.bytesWritten                1018496                       # Total number of bytes written to DRAM
system.mem_ctrls0.bytesReadSys               10084288                       # Total read bytes from the system interface side
system.mem_ctrls0.bytesWrittenSys             1020288                       # Total written bytes from the system interface side
system.mem_ctrls0.servicedByWrQ                     6                       # Number of DRAM read bursts serviced by the write queue
system.mem_ctrls0.mergedWrBursts                    0                       # Number of DRAM write bursts merged with an existing one
system.mem_ctrls0.neitherReadNorWriteReqs            0                       # Number of requests that are neither read nor write
system.mem_ctrls0.perBankRdBursts::0            10057                       # Per bank write bursts
system.mem_ctrls0.perBankRdBursts::1             9905                       # Per bank write bursts
system.mem_ctrls0.perBankRdBursts::2             9654                       # Per bank write bursts
system.mem_ctrls0.perBankRdBursts::3             9717                       # Per bank write bursts
system.mem_ctrls0.perBankRdBursts::4             9160                       # Per bank write bursts
system.mem_ctrls0.perBankRdBursts::5             9229                       # Per bank write bursts
system.mem_ctrls0.perBankRdBursts::6             9207                       # Per bank write bursts
system.mem_ctrls0.perBankRdBursts::7             9200                       # Per bank write bursts
system.mem_ctrls0.perBankRdBursts::8             9071                       # Per bank write bursts
system.mem_ctrls0.perBankRdBursts::9             9695                       # Per bank write bursts
system.mem_ctrls0.perBankRdBursts::10           10485                       # Per bank write bursts
system.mem_ctrls0.perBankRdBursts::11           10406                       # Per bank write bursts
system.mem_ctrls0.perBankRdBursts::12           11216                       # Per bank write bursts
system.mem_ctrls0.perBankRdBursts::13           10686                       # Per bank write bursts
system.mem_ctrls0.perBankRdBursts::14           10047                       # Per bank write bursts
system.mem_ctrls0.perBankRdBursts::15            9826                       # Per bank write bursts
system.mem_ctrls0.perBankWrBursts::0             1033                       # Per bank write bursts
system.mem_ctrls0.perBankWrBursts::1              928                       # Per bank write bursts
system.mem_ctrls0.perBankWrBursts::2              964                       # Per bank write bursts
system.mem_ctrls0.perBankWrBursts::3              970                       # Per bank write bursts
system.mem_ctrls0.perBankWrBursts::4              790                       # Per bank write bursts
system.mem_ctrls0.perBankWrBursts::5              759                       # Per bank write bursts
system.mem_ctrls0.perBankWrBursts::6              849                       # Per bank write bursts
system.mem_ctrls0.perBankWrBursts::7              865                       # Per bank write bursts
system.mem_ctrls0.perBankWrBursts::8              820                       # Per bank write bursts
system.mem_ctrls0.perBankWrBursts::9             1028                       # Per bank write bursts
system.mem_ctrls0.perBankWrBursts::10            1252                       # Per bank write bursts
system.mem_ctrls0.perBankWrBursts::11            1267                       # Per bank write bursts
system.mem_ctrls0.perBankWrBursts::12            1299                       # Per bank write bursts
system.mem_ctrls0.perBankWrBursts::13            1142                       # Per bank write bursts
system.mem_ctrls0.perBankWrBursts::14             987                       # Per bank write bursts
system.mem_ctrls0.perBankWrBursts::15             961                       # Per bank write bursts
system.mem_ctrls0.numRdRetry                        0                       # Number of times read queue was full causing retry
system.mem_ctrls0.numWrRetry                        0                       # Number of times write queue was full causing retry
system.mem_ctrls0.totGap                  15953626500                       # Total gap between requests
system.mem_ctrls0.readPktSize::0                    0                       # Read request sizes (log2)
system.mem_ctrls0.readPktSize::1                    0                       # Read request sizes (log2)
system.mem_ctrls0.readPktSize::2                    0                       # Read request sizes (log2)
system.mem_ctrls0.readPktSize::3                    0                       # Read request sizes (log2)
system.mem_ctrls0.readPktSize::4                    0                       # Read request sizes (log2)
system.mem_ctrls0.readPktSize::5                    0                       # Read request sizes (log2)
system.mem_ctrls0.readPktSize::6               157567                       # Read request sizes (log2)
system.mem_ctrls0.writePktSize::0                   0                       # Write request sizes (log2)
system.mem_ctrls0.writePktSize::1                   0                       # Write request sizes (log2)
system.mem_ctrls0.writePktSize::2                   0                       # Write request sizes (log2)
system.mem_ctrls0.writePktSize::3                   0                       # Write request sizes (log2)
system.mem_ctrls0.writePktSize::4                   0                       # Write request sizes (log2)
system.mem_ctrls0.writePktSize::5                   0                       # Write request sizes (log2)
system.mem_ctrls0.writePktSize::6               15942                       # Write request sizes (log2)
system.mem_ctrls0.rdQLenPdf::0                  77990                       # What read queue length does an incoming req see
system.mem_ctrls0.rdQLenPdf::1                  41428                       # What read queue length does an incoming req see
system.mem_ctrls0.rdQLenPdf::2                  21250                       # What read queue length does an incoming req see
system.mem_ctrls0.rdQLenPdf::3                  10209                       # What read queue length does an incoming req see
system.mem_ctrls0.rdQLenPdf::4                   4337                       # What read queue length does an incoming req see
system.mem_ctrls0.rdQLenPdf::5                   1578                       # What read queue length does an incoming req see
system.mem_ctrls0.rdQLenPdf::6                    585                       # What read queue length does an incoming req see
system.mem_ctrls0.rdQLenPdf::7                    143                       # What read queue length does an incoming req see
system.mem_ctrls0.rdQLenPdf::8                     33                       # What read queue length does an incoming req see
system.mem_ctrls0.rdQLenPdf::9                      7                       # What read queue length does an incoming req see
system.mem_ctrls0.rdQLenPdf::10                     1                       # What read queue length does an incoming req see
system.mem_ctrls0.rdQLenPdf::11                     0                       # What read queue length does an incoming req see
system.mem_ctrls0.rdQLenPdf::12                     0                       # What read queue length does an incoming req see
system.mem_ctrls0.rdQLenPdf::13                     0                       # What read queue length does an incoming req see
system.mem_ctrls0.rdQLenPdf::14                     0                       # What read queue length does an incoming req see
system.mem_ctrls0.rdQLenPdf::15                     0                       # What read queue length does an incoming req see
system.mem_ctrls0.rdQLenPdf::16                     0                       # What read queue length does an incoming req see
system.mem_ctrls0.rdQLenPdf::17                     0                       # What read queue length does an incoming req see
system.mem_ctrls0.rdQLenPdf::18                     0                       # What read queue length does an incoming req see
system.mem_ctrls0.rdQLenPdf::19                     0                       # What read queue length does an incoming req see
system.mem_ctrls0.rdQLenPdf::20                     0                       # What read queue length does an incoming req see
system.mem_ctrls0.rdQLenPdf::21                     0                       # What read queue length does an incoming req see
system.mem_ctrls0.rdQLenPdf::22                     0                       # What read queue length does an incoming req see
system.mem_ctrls0.rdQLenPdf::23                     0                       # What read queue length does an incoming req see
system.mem_ctrls0.rdQLenPdf::24                     0                       # What read queue length does an incoming req see
system.mem_ctrls0.rdQLenPdf::25                     0                       # What read queue length does an incoming req see
system.mem_ctrls0.rdQLenPdf::26                     0                       # What read queue length does an incoming req see
system.mem_ctrls0.rdQLenPdf::27                     0                       # What read queue length does an incoming req see
system.mem_ctrls0.rdQLenPdf::28                     0                       # What read queue length does an incoming req see
system.mem_ctrls0.rdQLenPdf::29                     0                       # What read queue length does an incoming req see
system.mem_ctrls0.rdQLenPdf::30                     0                       # What read queue length does an incoming req see
system.mem_ctrls0.rdQLenPdf::31                     0                       # What read queue length does an incoming req see
system.mem_ctrls0.wrQLenPdf::0                      1                       # What write queue length does an incoming req see
system.mem_ctrls0.wrQLenPdf::1                      1                       # What write queue length does an incoming req see
system.mem_ctrls0.wrQLenPdf::2                      1                       # What write queue length does an incoming req see
system.mem_ctrls0.wrQLenPdf::3                      1                       # What write queue length does an incoming req see
system.mem_ctrls0.wrQLenPdf::4                      1                       # What write queue length does an incoming req see
system.mem_ctrls0.wrQLenPdf::5                      1                       # What write queue length does an incoming req see
system.mem_ctrls0.wrQLenPdf::6                      1                       # What write queue length does an incoming req see
system.mem_ctrls0.wrQLenPdf::7                      1                       # What write queue length does an incoming req see
system.mem_ctrls0.wrQLenPdf::8                      1                       # What write queue length does an incoming req see
system.mem_ctrls0.wrQLenPdf::9                      1                       # What write queue length does an incoming req see
system.mem_ctrls0.wrQLenPdf::10                     1                       # What write queue length does an incoming req see
system.mem_ctrls0.wrQLenPdf::11                     1                       # What write queue length does an incoming req see
system.mem_ctrls0.wrQLenPdf::12                     1                       # What write queue length does an incoming req see
system.mem_ctrls0.wrQLenPdf::13                     1                       # What write queue length does an incoming req see
system.mem_ctrls0.wrQLenPdf::14                     1                       # What write queue length does an incoming req see
system.mem_ctrls0.wrQLenPdf::15                   255                       # What write queue length does an incoming req see
system.mem_ctrls0.wrQLenPdf::16                   295                       # What write queue length does an incoming req see
system.mem_ctrls0.wrQLenPdf::17                   683                       # What write queue length does an incoming req see
system.mem_ctrls0.wrQLenPdf::18                   935                       # What write queue length does an incoming req see
system.mem_ctrls0.wrQLenPdf::19                   986                       # What write queue length does an incoming req see
system.mem_ctrls0.wrQLenPdf::20                   988                       # What write queue length does an incoming req see
system.mem_ctrls0.wrQLenPdf::21                   982                       # What write queue length does an incoming req see
system.mem_ctrls0.wrQLenPdf::22                   982                       # What write queue length does an incoming req see
system.mem_ctrls0.wrQLenPdf::23                   981                       # What write queue length does an incoming req see
system.mem_ctrls0.wrQLenPdf::24                   983                       # What write queue length does an incoming req see
system.mem_ctrls0.wrQLenPdf::25                   990                       # What write queue length does an incoming req see
system.mem_ctrls0.wrQLenPdf::26                   984                       # What write queue length does an incoming req see
system.mem_ctrls0.wrQLenPdf::27                   975                       # What write queue length does an incoming req see
system.mem_ctrls0.wrQLenPdf::28                   972                       # What write queue length does an incoming req see
system.mem_ctrls0.wrQLenPdf::29                   974                       # What write queue length does an incoming req see
system.mem_ctrls0.wrQLenPdf::30                   978                       # What write queue length does an incoming req see
system.mem_ctrls0.wrQLenPdf::31                   978                       # What write queue length does an incoming req see
system.mem_ctrls0.wrQLenPdf::32                   972                       # What write queue length does an incoming req see
system.mem_ctrls0.wrQLenPdf::33                    29                       # What write queue length does an incoming req see
system.mem_ctrls0.wrQLenPdf::34                     4                       # What write queue length does an incoming req see
system.mem_ctrls0.wrQLenPdf::35                     1                       # What write queue length does an incoming req see
system.mem_ctrls0.wrQLenPdf::36                     0                       # What write queue length does an incoming req see
system.mem_ctrls0.wrQLenPdf::37                     0                       # What write queue length does an incoming req see
system.mem_ctrls0.wrQLenPdf::38                     0                       # What write queue length does an incoming req see
system.mem_ctrls0.wrQLenPdf::39                     0                       # What write queue length does an incoming req see
system.mem_ctrls0.wrQLenPdf::40                     0                       # What write queue length does an incoming req see
system.mem_ctrls0.wrQLenPdf::41                     0                       # What write queue length does an incoming req see
system.mem_ctrls0.wrQLenPdf::42                     0                       # What write queue length does an incoming req see
system.mem_ctrls0.wrQLenPdf::43                     0                       # What write queue length does an incoming req see
system.mem_ctrls0.wrQLenPdf::44                     0                       # What write queue length does an incoming req see
system.mem_ctrls0.wrQLenPdf::45                     0                       # What write queue length does an incoming req see
system.mem_ctrls0.wrQLenPdf::46                     0                       # What write queue length does an incoming req see
system.mem_ctrls0.wrQLenPdf::47                     0                       # What write queue length does an incoming req see
system.mem_ctrls0.wrQLenPdf::48                     0                       # What write queue length does an incoming req see
system.mem_ctrls0.wrQLenPdf::49                     0                       # What write queue length does an incoming req see
system.mem_ctrls0.wrQLenPdf::50                     0                       # What write queue length does an incoming req see
system.mem_ctrls0.wrQLenPdf::51                     0                       # What write queue length does an incoming req see
system.mem_ctrls0.wrQLenPdf::52                     0                       # What write queue length does an incoming req see
system.mem_ctrls0.wrQLenPdf::53                     0                       # What write queue length does an incoming req see
system.mem_ctrls0.wrQLenPdf::54                     0                       # What write queue length does an incoming req see
system.mem_ctrls0.wrQLenPdf::55                     0                       # What write queue length does an incoming req see
system.mem_ctrls0.wrQLenPdf::56                     0                       # What write queue length does an incoming req see
system.mem_ctrls0.wrQLenPdf::57                     0                       # What write queue length does an incoming req see
system.mem_ctrls0.wrQLenPdf::58                     0                       # What write queue length does an incoming req see
system.mem_ctrls0.wrQLenPdf::59                     0                       # What write queue length does an incoming req see
system.mem_ctrls0.wrQLenPdf::60                     0                       # What write queue length does an incoming req see
system.mem_ctrls0.wrQLenPdf::61                     0                       # What write queue length does an incoming req see
system.mem_ctrls0.wrQLenPdf::62                     0                       # What write queue length does an incoming req see
system.mem_ctrls0.wrQLenPdf::63                     0                       # What write queue length does an incoming req see
system.mem_ctrls0.bytesPerActivate::samples        98276                       # Bytes accessed per row activation
system.mem_ctrls0.bytesPerActivate::mean   112.969677                       # Bytes accessed per row activation
system.mem_ctrls0.bytesPerActivate::gmean    87.827290                       # Bytes accessed per row activation
system.mem_ctrls0.bytesPerActivate::stdev   122.094778                       # Bytes accessed per row activation
system.mem_ctrls0.bytesPerActivate::0-127        70391     71.63%     71.63% # Bytes accessed per row activation
system.mem_ctrls0.bytesPerActivate::128-255        18408     18.73%     90.36% # Bytes accessed per row activation
system.mem_ctrls0.bytesPerActivate::256-383         4013      4.08%     94.44% # Bytes accessed per row activation
system.mem_ctrls0.bytesPerActivate::384-511         2235      2.27%     96.71% # Bytes accessed per row activation
system.mem_ctrls0.bytesPerActivate::512-639         1469      1.49%     98.21% # Bytes accessed per row activation
system.mem_ctrls0.bytesPerActivate::640-767         1176      1.20%     99.41% # Bytes accessed per row activation
system.mem_ctrls0.bytesPerActivate::768-895          203      0.21%     99.61% # Bytes accessed per row activation
system.mem_ctrls0.bytesPerActivate::896-1023          178      0.18%     99.79% # Bytes accessed per row activation
system.mem_ctrls0.bytesPerActivate::1024-1151          203      0.21%    100.00% # Bytes accessed per row activation
system.mem_ctrls0.bytesPerActivate::total        98276                       # Bytes accessed per row activation
system.mem_ctrls0.rdPerTurnAround::samples          959                       # Reads before turning the bus around for writes
system.mem_ctrls0.rdPerTurnAround::mean    164.270073                       # Reads before turning the bus around for writes
system.mem_ctrls0.rdPerTurnAround::gmean    62.227902                       # Reads before turning the bus around for writes
system.mem_ctrls0.rdPerTurnAround::stdev  2104.564235                       # Reads before turning the bus around for writes
system.mem_ctrls0.rdPerTurnAround::0-2047          958     99.90%     99.90% # Reads before turning the bus around for writes
system.mem_ctrls0.rdPerTurnAround::63488-65535            1      0.10%    100.00% # Reads before turning the bus around for writes
system.mem_ctrls0.rdPerTurnAround::total          959                       # Reads before turning the bus around for writes
system.mem_ctrls0.wrPerTurnAround::samples          959                       # Writes before turning the bus around for reads
system.mem_ctrls0.wrPerTurnAround::mean     16.594369                       # Writes before turning the bus around for reads
system.mem_ctrls0.wrPerTurnAround::gmean    16.569945                       # Writes before turning the bus around for reads
system.mem_ctrls0.wrPerTurnAround::stdev     0.916794                       # Writes before turning the bus around for reads
system.mem_ctrls0.wrPerTurnAround::16             663     69.13%     69.13% # Writes before turning the bus around for reads
system.mem_ctrls0.wrPerTurnAround::17              33      3.44%     72.58% # Writes before turning the bus around for reads
system.mem_ctrls0.wrPerTurnAround::18             254     26.49%     99.06% # Writes before turning the bus around for reads
system.mem_ctrls0.wrPerTurnAround::19               7      0.73%     99.79% # Writes before turning the bus around for reads
system.mem_ctrls0.wrPerTurnAround::20               2      0.21%    100.00% # Writes before turning the bus around for reads
system.mem_ctrls0.wrPerTurnAround::total          959                       # Writes before turning the bus around for reads
system.mem_ctrls0.totQLat                  4441936000                       # Total ticks spent queuing
system.mem_ctrls0.totMemAccLat             7396204750                       # Total ticks spent from burst creation until serviced by the DRAM
system.mem_ctrls0.totBusLat                 787805000                       # Total ticks spent in databus transfers
system.mem_ctrls0.avgQLat                    28191.85                       # Average queueing delay per DRAM burst
system.mem_ctrls0.avgBusLat                   5000.00                       # Average bus latency per DRAM burst
system.mem_ctrls0.avgMemAccLat               46941.85                       # Average memory access latency per DRAM burst
system.mem_ctrls0.avgRdBW                      632.03                       # Average DRAM read bandwidth in MiByte/s
system.mem_ctrls0.avgWrBW                       63.84                       # Average achieved write bandwidth in MiByte/s
system.mem_ctrls0.avgRdBWSys                   632.05                       # Average system read bandwidth in MiByte/s
system.mem_ctrls0.avgWrBWSys                    63.95                       # Average system write bandwidth in MiByte/s
system.mem_ctrls0.peakBW                     12800.00                       # Theoretical peak bandwidth in MiByte/s
system.mem_ctrls0.busUtil                        5.44                       # Data bus utilization in percentage
system.mem_ctrls0.busUtilRead                    4.94                       # Data bus utilization in percentage for reads
system.mem_ctrls0.busUtilWrite                   0.50                       # Data bus utilization in percentage for writes
system.mem_ctrls0.avgRdQLen                      1.54                       # Average read queue length when enqueuing
system.mem_ctrls0.avgWrQLen                     13.00                       # Average write queue length when enqueuing
system.mem_ctrls0.readRowHits                   71888                       # Number of row buffer hits during reads
system.mem_ctrls0.writeRowHits                   3309                       # Number of row buffer hits during writes
system.mem_ctrls0.readRowHitRate                45.63                       # Row buffer hit rate for reads
system.mem_ctrls0.writeRowHitRate               20.76                       # Row buffer hit rate for writes
system.mem_ctrls0.avgGap                     91946.97                       # Average gap between requests
system.mem_ctrls0.pageHitRate                   43.34                       # Row buffer hit rate, read and write combined
system.mem_ctrls0_0.actEnergy               330767640                       # Energy for activate commands per rank (pJ)
system.mem_ctrls0_0.preEnergy               175799580                       # Energy for precharge commands per rank (pJ)
system.mem_ctrls0_0.readEnergy              543561060                       # Energy for read commands per rank (pJ)
system.mem_ctrls0_0.writeEnergy              37364760                       # Energy for write commands per rank (pJ)
system.mem_ctrls0_0.refreshEnergy        1238499600.000000                       # Energy for refresh commands per rank (pJ)
system.mem_ctrls0_0.actBackEnergy          1413307020                       # Energy for active background per rank (pJ)
system.mem_ctrls0_0.preBackEnergy            34613280                       # Energy for precharge background per rank (pJ)
system.mem_ctrls0_0.actPowerDownEnergy     5228154000                       # Energy for active power-down per rank (pJ)
system.mem_ctrls0_0.prePowerDownEnergy      301690560                       # Energy for precharge power-down per rank (pJ)
system.mem_ctrls0_0.selfRefreshEnergy       142911720                       # Energy for self refresh per rank (pJ)
system.mem_ctrls0_0.totalEnergy            9446908650                       # Total energy per rank (pJ)
system.mem_ctrls0_0.averagePower           592.102909                       # Core power per rank (mW)
system.mem_ctrls0_0.totalIdleTime         12762031250                       # Total Idle time Per DRAM Rank
system.mem_ctrls0_0.memoryStateTime::IDLE     20570750                       # Time in different power states
system.mem_ctrls0_0.memoryStateTime::REF    524200000                       # Time in different power states
system.mem_ctrls0_0.memoryStateTime::SREF    513908500                       # Time in different power states
system.mem_ctrls0_0.memoryStateTime::PRE_PDN    785369000                       # Time in different power states
system.mem_ctrls0_0.memoryStateTime::ACT   2646285250                       # Time in different power states
system.mem_ctrls0_0.memoryStateTime::ACT_PDN  11464509000                       # Time in different power states
system.mem_ctrls0_1.actEnergy               370937280                       # Energy for activate commands per rank (pJ)
system.mem_ctrls0_1.preEnergy               197157840                       # Energy for precharge commands per rank (pJ)
system.mem_ctrls0_1.readEnergy              581424480                       # Energy for read commands per rank (pJ)
system.mem_ctrls0_1.writeEnergy              45706320                       # Energy for write commands per rank (pJ)
system.mem_ctrls0_1.refreshEnergy        1260012000.000000                       # Energy for refresh commands per rank (pJ)
system.mem_ctrls0_1.actBackEnergy          1537138380                       # Energy for active background per rank (pJ)
system.mem_ctrls0_1.preBackEnergy            35153760                       # Energy for precharge background per rank (pJ)
system.mem_ctrls0_1.actPowerDownEnergy     5253054450                       # Energy for active power-down per rank (pJ)
system.mem_ctrls0_1.prePowerDownEnergy      272906880                       # Energy for precharge power-down per rank (pJ)
system.mem_ctrls0_1.selfRefreshEnergy        83475915                       # Energy for self refresh per rank (pJ)
system.mem_ctrls0_1.totalEnergy            9637421505                       # Total energy per rank (pJ)
system.mem_ctrls0_1.averagePower           604.043663                       # Core power per rank (mW)
system.mem_ctrls0_1.totalIdleTime         12491715000                       # Total Idle time Per DRAM Rank
system.mem_ctrls0_1.memoryStateTime::IDLE     21276250                       # Time in different power states
system.mem_ctrls0_1.memoryStateTime::REF    533312000                       # Time in different power states
system.mem_ctrls0_1.memoryStateTime::SREF    260817000                       # Time in different power states
system.mem_ctrls0_1.memoryStateTime::PRE_PDN    710501750                       # Time in different power states
system.mem_ctrls0_1.memoryStateTime::ACT   2908346750                       # Time in different power states
system.mem_ctrls0_1.memoryStateTime::ACT_PDN  11520588750                       # Time in different power states
system.mem_ctrls1.pwrStateResidencyTicks::UNDEFINED  15954842500                       # Cumulative time (in ticks) in various power states
system.mem_ctrls1.bytes_read::ruby.dir_cntrl1     10056704                       # Number of bytes read from this memory
system.mem_ctrls1.bytes_read::total          10056704                       # Number of bytes read from this memory
system.mem_ctrls1.bytes_written::ruby.dir_cntrl1      1024000                       # Number of bytes written to this memory
system.mem_ctrls1.bytes_written::total        1024000                       # Number of bytes written to this memory
system.mem_ctrls1.num_reads::ruby.dir_cntrl1       157136                       # Number of read requests responded to by this memory
system.mem_ctrls1.num_reads::total             157136                       # Number of read requests responded to by this memory
system.mem_ctrls1.num_writes::ruby.dir_cntrl1        16000                       # Number of write requests responded to by this memory
system.mem_ctrls1.num_writes::total             16000                       # Number of write requests responded to by this memory
system.mem_ctrls1.bw_read::ruby.dir_cntrl1    630322988                       # Total read bandwidth from this memory (bytes/s)
system.mem_ctrls1.bw_read::total            630322988                       # Total read bandwidth from this memory (bytes/s)
system.mem_ctrls1.bw_write::ruby.dir_cntrl1     64181141                       # Write bandwidth from this memory (bytes/s)
system.mem_ctrls1.bw_write::total            64181141                       # Write bandwidth from this memory (bytes/s)
system.mem_ctrls1.bw_total::ruby.dir_cntrl1    694504129                       # Total bandwidth to/from this memory (bytes/s)
system.mem_ctrls1.bw_total::total           694504129                       # Total bandwidth to/from this memory (bytes/s)
system.mem_ctrls1.readReqs                     157136                       # Number of read requests accepted
system.mem_ctrls1.avgNetLat                      0.00                       # Average network latency to DRAM controller
system.mem_ctrls1.writeReqs                     16000                       # Number of write requests accepted
system.mem_ctrls1.readBursts                   157136                       # Number of DRAM read bursts, including those serviced by the write queue
system.mem_ctrls1.writeBursts                   16000                       # Number of DRAM write bursts, including those merged in the write queue
system.mem_ctrls1.bytesReadDRAM              10056192                       # Total number of bytes read from DRAM
system.mem_ctrls1.bytesReadWrQ                    512                       # Total number of bytes read from write queue
system.mem_ctrls1.bytesWritten                1022976                       # Total number of bytes written to DRAM
system.mem_ctrls1.bytesReadSys               10056704                       # Total read bytes from the system interface side
system.mem_ctrls1.bytesWrittenSys             1024000                       # Total written bytes from the system interface side
system.mem_ctrls1.servicedByWrQ                     8                       # Number of DRAM read bursts serviced by the write queue
system.mem_ctrls1.mergedWrBursts                    0                       # Number of DRAM write bursts merged with an existing one
system.mem_ctrls1.neitherReadNorWriteReqs            0                       # Number of requests that are neither read nor write
system.mem_ctrls1.perBankRdBursts::0             9885                       # Per bank write bursts
system.mem_ctrls1.perBankRdBursts::1             9823                       # Per bank write bursts
system.mem_ctrls1.perBankRdBursts::2             9633                       # Per bank write bursts
system.mem_ctrls1.perBankRdBursts::3             9726                       # Per bank write bursts
system.mem_ctrls1.perBankRdBursts::4             9116                       # Per bank write bursts
system.mem_ctrls1.perBankRdBursts::5             9246                       # Per bank write bursts
system.mem_ctrls1.perBankRdBursts::6             9198                       # Per bank write bursts
system.mem_ctrls1.perBankRdBursts::7             9219                       # Per bank write bursts
system.mem_ctrls1.perBankRdBursts::8             9040                       # Per bank write bursts
system.mem_ctrls1.perBankRdBursts::9             9636                       # Per bank write bursts
system.mem_ctrls1.perBankRdBursts::10           10487                       # Per bank write bursts
system.mem_ctrls1.perBankRdBursts::11           10400                       # Per bank write bursts
system.mem_ctrls1.perBankRdBursts::12           11195                       # Per bank write bursts
system.mem_ctrls1.perBankRdBursts::13           10680                       # Per bank write bursts
system.mem_ctrls1.perBankRdBursts::14           10022                       # Per bank write bursts
system.mem_ctrls1.perBankRdBursts::15            9822                       # Per bank write bursts
system.mem_ctrls1.perBankWrBursts::0              960                       # Per bank write bursts
system.mem_ctrls1.perBankWrBursts::1              885                       # Per bank write bursts
system.mem_ctrls1.perBankWrBursts::2              951                       # Per bank write bursts
system.mem_ctrls1.perBankWrBursts::3              992                       # Per bank write bursts
system.mem_ctrls1.perBankWrBursts::4              763                       # Per bank write bursts
system.mem_ctrls1.perBankWrBursts::5              781                       # Per bank write bursts
system.mem_ctrls1.perBankWrBursts::6              871                       # Per bank write bursts
system.mem_ctrls1.perBankWrBursts::7              909                       # Per bank write bursts
system.mem_ctrls1.perBankWrBursts::8              822                       # Per bank write bursts
system.mem_ctrls1.perBankWrBursts::9             1014                       # Per bank write bursts
system.mem_ctrls1.perBankWrBursts::10            1286                       # Per bank write bursts
system.mem_ctrls1.perBankWrBursts::11            1261                       # Per bank write bursts
system.mem_ctrls1.perBankWrBursts::12            1321                       # Per bank write bursts
system.mem_ctrls1.perBankWrBursts::13            1189                       # Per bank write bursts
system.mem_ctrls1.perBankWrBursts::14            1010                       # Per bank write bursts
system.mem_ctrls1.perBankWrBursts::15             969                       # Per bank write bursts
system.mem_ctrls1.numRdRetry                        0                       # Number of times read queue was full causing retry
system.mem_ctrls1.numWrRetry                        0                       # Number of times write queue was full causing retry
system.mem_ctrls1.totGap                  15954229000                       # Total gap between requests
system.mem_ctrls1.readPktSize::0                    0                       # Read request sizes (log2)
system.mem_ctrls1.readPktSize::1                    0                       # Read request sizes (log2)
system.mem_ctrls1.readPktSize::2                    0                       # Read request sizes (log2)
system.mem_ctrls1.readPktSize::3                    0                       # Read request sizes (log2)
system.mem_ctrls1.readPktSize::4                    0                       # Read request sizes (log2)
system.mem_ctrls1.readPktSize::5                    0                       # Read request sizes (log2)
system.mem_ctrls1.readPktSize::6               157136                       # Read request sizes (log2)
system.mem_ctrls1.writePktSize::0                   0                       # Write request sizes (log2)
system.mem_ctrls1.writePktSize::1                   0                       # Write request sizes (log2)
system.mem_ctrls1.writePktSize::2                   0                       # Write request sizes (log2)
system.mem_ctrls1.writePktSize::3                   0                       # Write request sizes (log2)
system.mem_ctrls1.writePktSize::4                   0                       # Write request sizes (log2)
system.mem_ctrls1.writePktSize::5                   0                       # Write request sizes (log2)
system.mem_ctrls1.writePktSize::6               16000                       # Write request sizes (log2)
system.mem_ctrls1.rdQLenPdf::0                  77939                       # What read queue length does an incoming req see
system.mem_ctrls1.rdQLenPdf::1                  40877                       # What read queue length does an incoming req see
system.mem_ctrls1.rdQLenPdf::2                  21215                       # What read queue length does an incoming req see
system.mem_ctrls1.rdQLenPdf::3                  10087                       # What read queue length does an incoming req see
system.mem_ctrls1.rdQLenPdf::4                   4441                       # What read queue length does an incoming req see
system.mem_ctrls1.rdQLenPdf::5                   1729                       # What read queue length does an incoming req see
system.mem_ctrls1.rdQLenPdf::6                    596                       # What read queue length does an incoming req see
system.mem_ctrls1.rdQLenPdf::7                    181                       # What read queue length does an incoming req see
system.mem_ctrls1.rdQLenPdf::8                     51                       # What read queue length does an incoming req see
system.mem_ctrls1.rdQLenPdf::9                     11                       # What read queue length does an incoming req see
system.mem_ctrls1.rdQLenPdf::10                     1                       # What read queue length does an incoming req see
system.mem_ctrls1.rdQLenPdf::11                     0                       # What read queue length does an incoming req see
system.mem_ctrls1.rdQLenPdf::12                     0                       # What read queue length does an incoming req see
system.mem_ctrls1.rdQLenPdf::13                     0                       # What read queue length does an incoming req see
system.mem_ctrls1.rdQLenPdf::14                     0                       # What read queue length does an incoming req see
system.mem_ctrls1.rdQLenPdf::15                     0                       # What read queue length does an incoming req see
system.mem_ctrls1.rdQLenPdf::16                     0                       # What read queue length does an incoming req see
system.mem_ctrls1.rdQLenPdf::17                     0                       # What read queue length does an incoming req see
system.mem_ctrls1.rdQLenPdf::18                     0                       # What read queue length does an incoming req see
system.mem_ctrls1.rdQLenPdf::19                     0                       # What read queue length does an incoming req see
system.mem_ctrls1.rdQLenPdf::20                     0                       # What read queue length does an incoming req see
system.mem_ctrls1.rdQLenPdf::21                     0                       # What read queue length does an incoming req see
system.mem_ctrls1.rdQLenPdf::22                     0                       # What read queue length does an incoming req see
system.mem_ctrls1.rdQLenPdf::23                     0                       # What read queue length does an incoming req see
system.mem_ctrls1.rdQLenPdf::24                     0                       # What read queue length does an incoming req see
system.mem_ctrls1.rdQLenPdf::25                     0                       # What read queue length does an incoming req see
system.mem_ctrls1.rdQLenPdf::26                     0                       # What read queue length does an incoming req see
system.mem_ctrls1.rdQLenPdf::27                     0                       # What read queue length does an incoming req see
system.mem_ctrls1.rdQLenPdf::28                     0                       # What read queue length does an incoming req see
system.mem_ctrls1.rdQLenPdf::29                     0                       # What read queue length does an incoming req see
system.mem_ctrls1.rdQLenPdf::30                     0                       # What read queue length does an incoming req see
system.mem_ctrls1.rdQLenPdf::31                     0                       # What read queue length does an incoming req see
system.mem_ctrls1.wrQLenPdf::0                      1                       # What write queue length does an incoming req see
system.mem_ctrls1.wrQLenPdf::1                      1                       # What write queue length does an incoming req see
system.mem_ctrls1.wrQLenPdf::2                      1                       # What write queue length does an incoming req see
system.mem_ctrls1.wrQLenPdf::3                      1                       # What write queue length does an incoming req see
system.mem_ctrls1.wrQLenPdf::4                      1                       # What write queue length does an incoming req see
system.mem_ctrls1.wrQLenPdf::5                      1                       # What write queue length does an incoming req see
system.mem_ctrls1.wrQLenPdf::6                      1                       # What write queue length does an incoming req see
system.mem_ctrls1.wrQLenPdf::7                      1                       # What write queue length does an incoming req see
system.mem_ctrls1.wrQLenPdf::8                      1                       # What write queue length does an incoming req see
system.mem_ctrls1.wrQLenPdf::9                      1                       # What write queue length does an incoming req see
system.mem_ctrls1.wrQLenPdf::10                     1                       # What write queue length does an incoming req see
system.mem_ctrls1.wrQLenPdf::11                     1                       # What write queue length does an incoming req see
system.mem_ctrls1.wrQLenPdf::12                     1                       # What write queue length does an incoming req see
system.mem_ctrls1.wrQLenPdf::13                     1                       # What write queue length does an incoming req see
system.mem_ctrls1.wrQLenPdf::14                     1                       # What write queue length does an incoming req see
system.mem_ctrls1.wrQLenPdf::15                   261                       # What write queue length does an incoming req see
system.mem_ctrls1.wrQLenPdf::16                   320                       # What write queue length does an incoming req see
system.mem_ctrls1.wrQLenPdf::17                   684                       # What write queue length does an incoming req see
system.mem_ctrls1.wrQLenPdf::18                   936                       # What write queue length does an incoming req see
system.mem_ctrls1.wrQLenPdf::19                   989                       # What write queue length does an incoming req see
system.mem_ctrls1.wrQLenPdf::20                   993                       # What write queue length does an incoming req see
system.mem_ctrls1.wrQLenPdf::21                   985                       # What write queue length does an incoming req see
system.mem_ctrls1.wrQLenPdf::22                   980                       # What write queue length does an incoming req see
system.mem_ctrls1.wrQLenPdf::23                   995                       # What write queue length does an incoming req see
system.mem_ctrls1.wrQLenPdf::24                   983                       # What write queue length does an incoming req see
system.mem_ctrls1.wrQLenPdf::25                   982                       # What write queue length does an incoming req see
system.mem_ctrls1.wrQLenPdf::26                   980                       # What write queue length does an incoming req see
system.mem_ctrls1.wrQLenPdf::27                   989                       # What write queue length does an incoming req see
system.mem_ctrls1.wrQLenPdf::28                   981                       # What write queue length does an incoming req see
system.mem_ctrls1.wrQLenPdf::29                   978                       # What write queue length does an incoming req see
system.mem_ctrls1.wrQLenPdf::30                   974                       # What write queue length does an incoming req see
system.mem_ctrls1.wrQLenPdf::31                   973                       # What write queue length does an incoming req see
system.mem_ctrls1.wrQLenPdf::32                   972                       # What write queue length does an incoming req see
system.mem_ctrls1.wrQLenPdf::33                    24                       # What write queue length does an incoming req see
system.mem_ctrls1.wrQLenPdf::34                     6                       # What write queue length does an incoming req see
system.mem_ctrls1.wrQLenPdf::35                     0                       # What write queue length does an incoming req see
system.mem_ctrls1.wrQLenPdf::36                     0                       # What write queue length does an incoming req see
system.mem_ctrls1.wrQLenPdf::37                     0                       # What write queue length does an incoming req see
system.mem_ctrls1.wrQLenPdf::38                     0                       # What write queue length does an incoming req see
system.mem_ctrls1.wrQLenPdf::39                     0                       # What write queue length does an incoming req see
system.mem_ctrls1.wrQLenPdf::40                     0                       # What write queue length does an incoming req see
system.mem_ctrls1.wrQLenPdf::41                     0                       # What write queue length does an incoming req see
system.mem_ctrls1.wrQLenPdf::42                     0                       # What write queue length does an incoming req see
system.mem_ctrls1.wrQLenPdf::43                     0                       # What write queue length does an incoming req see
system.mem_ctrls1.wrQLenPdf::44                     0                       # What write queue length does an incoming req see
system.mem_ctrls1.wrQLenPdf::45                     0                       # What write queue length does an incoming req see
system.mem_ctrls1.wrQLenPdf::46                     0                       # What write queue length does an incoming req see
system.mem_ctrls1.wrQLenPdf::47                     0                       # What write queue length does an incoming req see
system.mem_ctrls1.wrQLenPdf::48                     0                       # What write queue length does an incoming req see
system.mem_ctrls1.wrQLenPdf::49                     0                       # What write queue length does an incoming req see
system.mem_ctrls1.wrQLenPdf::50                     0                       # What write queue length does an incoming req see
system.mem_ctrls1.wrQLenPdf::51                     0                       # What write queue length does an incoming req see
system.mem_ctrls1.wrQLenPdf::52                     0                       # What write queue length does an incoming req see
system.mem_ctrls1.wrQLenPdf::53                     0                       # What write queue length does an incoming req see
system.mem_ctrls1.wrQLenPdf::54                     0                       # What write queue length does an incoming req see
system.mem_ctrls1.wrQLenPdf::55                     0                       # What write queue length does an incoming req see
system.mem_ctrls1.wrQLenPdf::56                     0                       # What write queue length does an incoming req see
system.mem_ctrls1.wrQLenPdf::57                     0                       # What write queue length does an incoming req see
system.mem_ctrls1.wrQLenPdf::58                     0                       # What write queue length does an incoming req see
system.mem_ctrls1.wrQLenPdf::59                     0                       # What write queue length does an incoming req see
system.mem_ctrls1.wrQLenPdf::60                     0                       # What write queue length does an incoming req see
system.mem_ctrls1.wrQLenPdf::61                     0                       # What write queue length does an incoming req see
system.mem_ctrls1.wrQLenPdf::62                     0                       # What write queue length does an incoming req see
system.mem_ctrls1.wrQLenPdf::63                     0                       # What write queue length does an incoming req see
system.mem_ctrls1.bytesPerActivate::samples        97753                       # Bytes accessed per row activation
system.mem_ctrls1.bytesPerActivate::mean   113.336430                       # Bytes accessed per row activation
system.mem_ctrls1.bytesPerActivate::gmean    88.057623                       # Bytes accessed per row activation
system.mem_ctrls1.bytesPerActivate::stdev   122.281875                       # Bytes accessed per row activation
system.mem_ctrls1.bytesPerActivate::0-127        69817     71.42%     71.42% # Bytes accessed per row activation
system.mem_ctrls1.bytesPerActivate::128-255        18384     18.81%     90.23% # Bytes accessed per row activation
system.mem_ctrls1.bytesPerActivate::256-383         4084      4.18%     94.41% # Bytes accessed per row activation
system.mem_ctrls1.bytesPerActivate::384-511         2305      2.36%     96.76% # Bytes accessed per row activation
system.mem_ctrls1.bytesPerActivate::512-639         1428      1.46%     98.23% # Bytes accessed per row activation
system.mem_ctrls1.bytesPerActivate::640-767         1152      1.18%     99.40% # Bytes accessed per row activation
system.mem_ctrls1.bytesPerActivate::768-895          196      0.20%     99.60% # Bytes accessed per row activation
system.mem_ctrls1.bytesPerActivate::896-1023          189      0.19%     99.80% # Bytes accessed per row activation
system.mem_ctrls1.bytesPerActivate::1024-1151          198      0.20%    100.00% # Bytes accessed per row activation
system.mem_ctrls1.bytesPerActivate::total        97753                       # Bytes accessed per row activation
system.mem_ctrls1.rdPerTurnAround::samples          961                       # Reads before turning the bus around for writes
system.mem_ctrls1.rdPerTurnAround::mean    163.500520                       # Reads before turning the bus around for writes
system.mem_ctrls1.rdPerTurnAround::gmean    61.475312                       # Reads before turning the bus around for writes
system.mem_ctrls1.rdPerTurnAround::stdev  2092.627949                       # Reads before turning the bus around for writes
system.mem_ctrls1.rdPerTurnAround::0-2047          960     99.90%     99.90% # Reads before turning the bus around for writes
system.mem_ctrls1.rdPerTurnAround::63488-65535            1      0.10%    100.00% # Reads before turning the bus around for writes
system.mem_ctrls1.rdPerTurnAround::total          961                       # Reads before turning the bus around for writes
system.mem_ctrls1.wrPerTurnAround::samples          961                       # Writes before turning the bus around for reads
system.mem_ctrls1.wrPerTurnAround::mean     16.632674                       # Writes before turning the bus around for reads
system.mem_ctrls1.wrPerTurnAround::gmean    16.607701                       # Writes before turning the bus around for reads
system.mem_ctrls1.wrPerTurnAround::stdev     0.926088                       # Writes before turning the bus around for reads
system.mem_ctrls1.wrPerTurnAround::16             643     66.91%     66.91% # Writes before turning the bus around for reads
system.mem_ctrls1.wrPerTurnAround::17              37      3.85%     70.76% # Writes before turning the bus around for reads
system.mem_ctrls1.wrPerTurnAround::18             273     28.41%     99.17% # Writes before turning the bus around for reads
system.mem_ctrls1.wrPerTurnAround::19               7      0.73%     99.90% # Writes before turning the bus around for reads
system.mem_ctrls1.wrPerTurnAround::20               1      0.10%    100.00% # Writes before turning the bus around for reads
system.mem_ctrls1.wrPerTurnAround::total          961                       # Writes before turning the bus around for reads
system.mem_ctrls1.totQLat                  4472104500                       # Total ticks spent queuing
system.mem_ctrls1.totMemAccLat             7418254500                       # Total ticks spent from burst creation until serviced by the DRAM
system.mem_ctrls1.totBusLat                 785640000                       # Total ticks spent in databus transfers
system.mem_ctrls1.avgQLat                    28461.54                       # Average queueing delay per DRAM burst
system.mem_ctrls1.avgBusLat                   5000.00                       # Average bus latency per DRAM burst
system.mem_ctrls1.avgMemAccLat               47211.54                       # Average memory access latency per DRAM burst
system.mem_ctrls1.avgRdBW                      630.29                       # Average DRAM read bandwidth in MiByte/s
system.mem_ctrls1.avgWrBW                       64.12                       # Average achieved write bandwidth in MiByte/s
system.mem_ctrls1.avgRdBWSys                   630.32                       # Average system read bandwidth in MiByte/s
system.mem_ctrls1.avgWrBWSys                    64.18                       # Average system write bandwidth in MiByte/s
system.mem_ctrls1.peakBW                     12800.00                       # Theoretical peak bandwidth in MiByte/s
system.mem_ctrls1.busUtil                        5.43                       # Data bus utilization in percentage
system.mem_ctrls1.busUtilRead                    4.92                       # Data bus utilization in percentage for reads
system.mem_ctrls1.busUtilWrite                   0.50                       # Data bus utilization in percentage for writes
system.mem_ctrls1.avgRdQLen                      1.54                       # Average read queue length when enqueuing
system.mem_ctrls1.avgWrQLen                     13.04                       # Average write queue length when enqueuing
system.mem_ctrls1.readRowHits                   71833                       # Number of row buffer hits during reads
system.mem_ctrls1.writeRowHits                   3523                       # Number of row buffer hits during writes
system.mem_ctrls1.readRowHitRate                45.72                       # Row buffer hit rate for reads
system.mem_ctrls1.writeRowHitRate               22.02                       # Row buffer hit rate for writes
system.mem_ctrls1.avgGap                     92148.54                       # Average gap between requests
system.mem_ctrls1.pageHitRate                   43.53                       # Row buffer hit rate, read and write combined
system.mem_ctrls1_0.actEnergy               328033020                       # Energy for activate commands per rank (pJ)
system.mem_ctrls1_0.preEnergy               174349890                       # Energy for precharge commands per rank (pJ)
system.mem_ctrls1_0.readEnergy              541540440                       # Energy for read commands per rank (pJ)
system.mem_ctrls1_0.writeEnergy              37124640                       # Energy for write commands per rank (pJ)
system.mem_ctrls1_0.refreshEnergy        1239728880.000000                       # Energy for refresh commands per rank (pJ)
system.mem_ctrls1_0.actBackEnergy          1405922100                       # Energy for active background per rank (pJ)
system.mem_ctrls1_0.preBackEnergy            35054400                       # Energy for precharge background per rank (pJ)
system.mem_ctrls1_0.actPowerDownEnergy     5232836550                       # Energy for active power-down per rank (pJ)
system.mem_ctrls1_0.prePowerDownEnergy      306420480                       # Energy for precharge power-down per rank (pJ)
system.mem_ctrls1_0.selfRefreshEnergy       141683565                       # Energy for self refresh per rank (pJ)
system.mem_ctrls1_0.totalEnergy            9443007645                       # Total energy per rank (pJ)
system.mem_ctrls1_0.averagePower           591.858406                       # Core power per rank (mW)
system.mem_ctrls1_0.totalIdleTime         12779854500                       # Total Idle time Per DRAM Rank
system.mem_ctrls1_0.memoryStateTime::IDLE     21243250                       # Time in different power states
system.mem_ctrls1_0.memoryStateTime::REF    524696000                       # Time in different power states
system.mem_ctrls1_0.memoryStateTime::SREF    506204750                       # Time in different power states
system.mem_ctrls1_0.memoryStateTime::PRE_PDN    798051000                       # Time in different power states
system.mem_ctrls1_0.memoryStateTime::ACT   2628888000                       # Time in different power states
system.mem_ctrls1_0.memoryStateTime::ACT_PDN  11475759500                       # Time in different power states
system.mem_ctrls1_1.actEnergy               369944820                       # Energy for activate commands per rank (pJ)
system.mem_ctrls1_1.preEnergy               196622745                       # Energy for precharge commands per rank (pJ)
system.mem_ctrls1_1.readEnergy              580353480                       # Energy for read commands per rank (pJ)
system.mem_ctrls1_1.writeEnergy              46311840                       # Energy for write commands per rank (pJ)
system.mem_ctrls1_1.refreshEnergy        1258782720.000000                       # Energy for refresh commands per rank (pJ)
system.mem_ctrls1_1.actBackEnergy          1530082350                       # Energy for active background per rank (pJ)
system.mem_ctrls1_1.preBackEnergy            37494720                       # Energy for precharge background per rank (pJ)
system.mem_ctrls1_1.actPowerDownEnergy     5270774040                       # Energy for active power-down per rank (pJ)
system.mem_ctrls1_1.prePowerDownEnergy      258597120                       # Energy for precharge power-down per rank (pJ)
system.mem_ctrls1_1.selfRefreshEnergy        84704160                       # Energy for self refresh per rank (pJ)
system.mem_ctrls1_1.totalEnergy            9634051065                       # Total energy per rank (pJ)
system.mem_ctrls1_1.averagePower           603.832414                       # Core power per rank (mW)
system.mem_ctrls1_1.totalIdleTime         12501165500                       # Total Idle time Per DRAM Rank
system.mem_ctrls1_1.memoryStateTime::IDLE     28611750                       # Time in different power states
system.mem_ctrls1_1.memoryStateTime::REF    532780000                       # Time in different power states
system.mem_ctrls1_1.memoryStateTime::SREF    268761250                       # Time in different power states
system.mem_ctrls1_1.memoryStateTime::PRE_PDN    673254250                       # Time in different power states
system.mem_ctrls1_1.memoryStateTime::ACT   2891873250                       # Time in different power states
system.mem_ctrls1_1.memoryStateTime::ACT_PDN  11559562000                       # Time in different power states
system.mem_ctrls2.pwrStateResidencyTicks::UNDEFINED  15954842500                       # Cumulative time (in ticks) in various power states
system.mem_ctrls2.bytes_read::ruby.dir_cntrl2     10072064                       # Number of bytes read from this memory
system.mem_ctrls2.bytes_read::total          10072064                       # Number of bytes read from this memory
system.mem_ctrls2.bytes_written::ruby.dir_cntrl2      1026688                       # Number of bytes written to this memory
system.mem_ctrls2.bytes_written::total        1026688                       # Number of bytes written to this memory
system.mem_ctrls2.num_reads::ruby.dir_cntrl2       157376                       # Number of read requests responded to by this memory
system.mem_ctrls2.num_reads::total             157376                       # Number of read requests responded to by this memory
system.mem_ctrls2.num_writes::ruby.dir_cntrl2        16042                       # Number of write requests responded to by this memory
system.mem_ctrls2.num_writes::total             16042                       # Number of write requests responded to by this memory
system.mem_ctrls2.bw_read::ruby.dir_cntrl2    631285705                       # Total read bandwidth from this memory (bytes/s)
system.mem_ctrls2.bw_read::total            631285705                       # Total read bandwidth from this memory (bytes/s)
system.mem_ctrls2.bw_write::ruby.dir_cntrl2     64349617                       # Write bandwidth from this memory (bytes/s)
system.mem_ctrls2.bw_write::total            64349617                       # Write bandwidth from this memory (bytes/s)
system.mem_ctrls2.bw_total::ruby.dir_cntrl2    695635322                       # Total bandwidth to/from this memory (bytes/s)
system.mem_ctrls2.bw_total::total           695635322                       # Total bandwidth to/from this memory (bytes/s)
system.mem_ctrls2.readReqs                     157376                       # Number of read requests accepted
system.mem_ctrls2.avgNetLat                      0.00                       # Average network latency to DRAM controller
system.mem_ctrls2.writeReqs                     16042                       # Number of write requests accepted
system.mem_ctrls2.readBursts                   157376                       # Number of DRAM read bursts, including those serviced by the write queue
system.mem_ctrls2.writeBursts                   16042                       # Number of DRAM write bursts, including those merged in the write queue
system.mem_ctrls2.bytesReadDRAM              10071488                       # Total number of bytes read from DRAM
system.mem_ctrls2.bytesReadWrQ                    576                       # Total number of bytes read from write queue
system.mem_ctrls2.bytesWritten                1025344                       # Total number of bytes written to DRAM
system.mem_ctrls2.bytesReadSys               10072064                       # Total read bytes from the system interface side
system.mem_ctrls2.bytesWrittenSys             1026688                       # Total written bytes from the system interface side
system.mem_ctrls2.servicedByWrQ                     9                       # Number of DRAM read bursts serviced by the write queue
system.mem_ctrls2.mergedWrBursts                    0                       # Number of DRAM write bursts merged with an existing one
system.mem_ctrls2.neitherReadNorWriteReqs            0                       # Number of requests that are neither read nor write
system.mem_ctrls2.perBankRdBursts::0             9916                       # Per bank write bursts
system.mem_ctrls2.perBankRdBursts::1             9800                       # Per bank write bursts
system.mem_ctrls2.perBankRdBursts::2             9623                       # Per bank write bursts
system.mem_ctrls2.perBankRdBursts::3             9684                       # Per bank write bursts
system.mem_ctrls2.perBankRdBursts::4             9140                       # Per bank write bursts
system.mem_ctrls2.perBankRdBursts::5             9200                       # Per bank write bursts
system.mem_ctrls2.perBankRdBursts::6             9236                       # Per bank write bursts
system.mem_ctrls2.perBankRdBursts::7             9240                       # Per bank write bursts
system.mem_ctrls2.perBankRdBursts::8             9031                       # Per bank write bursts
system.mem_ctrls2.perBankRdBursts::9             9640                       # Per bank write bursts
system.mem_ctrls2.perBankRdBursts::10           10440                       # Per bank write bursts
system.mem_ctrls2.perBankRdBursts::11           10419                       # Per bank write bursts
system.mem_ctrls2.perBankRdBursts::12           11260                       # Per bank write bursts
system.mem_ctrls2.perBankRdBursts::13           10796                       # Per bank write bursts
system.mem_ctrls2.perBankRdBursts::14           10115                       # Per bank write bursts
system.mem_ctrls2.perBankRdBursts::15            9827                       # Per bank write bursts
system.mem_ctrls2.perBankWrBursts::0              987                       # Per bank write bursts
system.mem_ctrls2.perBankWrBursts::1              913                       # Per bank write bursts
system.mem_ctrls2.perBankWrBursts::2              939                       # Per bank write bursts
system.mem_ctrls2.perBankWrBursts::3              979                       # Per bank write bursts
system.mem_ctrls2.perBankWrBursts::4              775                       # Per bank write bursts
system.mem_ctrls2.perBankWrBursts::5              757                       # Per bank write bursts
system.mem_ctrls2.perBankWrBursts::6              846                       # Per bank write bursts
system.mem_ctrls2.perBankWrBursts::7              859                       # Per bank write bursts
system.mem_ctrls2.perBankWrBursts::8              824                       # Per bank write bursts
system.mem_ctrls2.perBankWrBursts::9             1011                       # Per bank write bursts
system.mem_ctrls2.perBankWrBursts::10            1246                       # Per bank write bursts
system.mem_ctrls2.perBankWrBursts::11            1286                       # Per bank write bursts
system.mem_ctrls2.perBankWrBursts::12            1332                       # Per bank write bursts
system.mem_ctrls2.perBankWrBursts::13            1267                       # Per bank write bursts
system.mem_ctrls2.perBankWrBursts::14            1036                       # Per bank write bursts
system.mem_ctrls2.perBankWrBursts::15             964                       # Per bank write bursts
system.mem_ctrls2.numRdRetry                        0                       # Number of times read queue was full causing retry
system.mem_ctrls2.numWrRetry                        0                       # Number of times write queue was full causing retry
system.mem_ctrls2.totGap                  15953891500                       # Total gap between requests
system.mem_ctrls2.readPktSize::0                    0                       # Read request sizes (log2)
system.mem_ctrls2.readPktSize::1                    0                       # Read request sizes (log2)
system.mem_ctrls2.readPktSize::2                    0                       # Read request sizes (log2)
system.mem_ctrls2.readPktSize::3                    0                       # Read request sizes (log2)
system.mem_ctrls2.readPktSize::4                    0                       # Read request sizes (log2)
system.mem_ctrls2.readPktSize::5                    0                       # Read request sizes (log2)
system.mem_ctrls2.readPktSize::6               157376                       # Read request sizes (log2)
system.mem_ctrls2.writePktSize::0                   0                       # Write request sizes (log2)
system.mem_ctrls2.writePktSize::1                   0                       # Write request sizes (log2)
system.mem_ctrls2.writePktSize::2                   0                       # Write request sizes (log2)
system.mem_ctrls2.writePktSize::3                   0                       # Write request sizes (log2)
system.mem_ctrls2.writePktSize::4                   0                       # Write request sizes (log2)
system.mem_ctrls2.writePktSize::5                   0                       # Write request sizes (log2)
system.mem_ctrls2.writePktSize::6               16042                       # Write request sizes (log2)
system.mem_ctrls2.rdQLenPdf::0                  77500                       # What read queue length does an incoming req see
system.mem_ctrls2.rdQLenPdf::1                  40576                       # What read queue length does an incoming req see
system.mem_ctrls2.rdQLenPdf::2                  20994                       # What read queue length does an incoming req see
system.mem_ctrls2.rdQLenPdf::3                  10428                       # What read queue length does an incoming req see
system.mem_ctrls2.rdQLenPdf::4                   4806                       # What read queue length does an incoming req see
system.mem_ctrls2.rdQLenPdf::5                   1924                       # What read queue length does an incoming req see
system.mem_ctrls2.rdQLenPdf::6                    744                       # What read queue length does an incoming req see
system.mem_ctrls2.rdQLenPdf::7                    269                       # What read queue length does an incoming req see
system.mem_ctrls2.rdQLenPdf::8                     88                       # What read queue length does an incoming req see
system.mem_ctrls2.rdQLenPdf::9                     23                       # What read queue length does an incoming req see
system.mem_ctrls2.rdQLenPdf::10                    10                       # What read queue length does an incoming req see
system.mem_ctrls2.rdQLenPdf::11                     5                       # What read queue length does an incoming req see
system.mem_ctrls2.rdQLenPdf::12                     0                       # What read queue length does an incoming req see
system.mem_ctrls2.rdQLenPdf::13                     0                       # What read queue length does an incoming req see
system.mem_ctrls2.rdQLenPdf::14                     0                       # What read queue length does an incoming req see
system.mem_ctrls2.rdQLenPdf::15                     0                       # What read queue length does an incoming req see
system.mem_ctrls2.rdQLenPdf::16                     0                       # What read queue length does an incoming req see
system.mem_ctrls2.rdQLenPdf::17                     0                       # What read queue length does an incoming req see
system.mem_ctrls2.rdQLenPdf::18                     0                       # What read queue length does an incoming req see
system.mem_ctrls2.rdQLenPdf::19                     0                       # What read queue length does an incoming req see
system.mem_ctrls2.rdQLenPdf::20                     0                       # What read queue length does an incoming req see
system.mem_ctrls2.rdQLenPdf::21                     0                       # What read queue length does an incoming req see
system.mem_ctrls2.rdQLenPdf::22                     0                       # What read queue length does an incoming req see
system.mem_ctrls2.rdQLenPdf::23                     0                       # What read queue length does an incoming req see
system.mem_ctrls2.rdQLenPdf::24                     0                       # What read queue length does an incoming req see
system.mem_ctrls2.rdQLenPdf::25                     0                       # What read queue length does an incoming req see
system.mem_ctrls2.rdQLenPdf::26                     0                       # What read queue length does an incoming req see
system.mem_ctrls2.rdQLenPdf::27                     0                       # What read queue length does an incoming req see
system.mem_ctrls2.rdQLenPdf::28                     0                       # What read queue length does an incoming req see
system.mem_ctrls2.rdQLenPdf::29                     0                       # What read queue length does an incoming req see
system.mem_ctrls2.rdQLenPdf::30                     0                       # What read queue length does an incoming req see
system.mem_ctrls2.rdQLenPdf::31                     0                       # What read queue length does an incoming req see
system.mem_ctrls2.wrQLenPdf::0                      1                       # What write queue length does an incoming req see
system.mem_ctrls2.wrQLenPdf::1                      1                       # What write queue length does an incoming req see
system.mem_ctrls2.wrQLenPdf::2                      1                       # What write queue length does an incoming req see
system.mem_ctrls2.wrQLenPdf::3                      1                       # What write queue length does an incoming req see
system.mem_ctrls2.wrQLenPdf::4                      1                       # What write queue length does an incoming req see
system.mem_ctrls2.wrQLenPdf::5                      1                       # What write queue length does an incoming req see
system.mem_ctrls2.wrQLenPdf::6                      1                       # What write queue length does an incoming req see
system.mem_ctrls2.wrQLenPdf::7                      1                       # What write queue length does an incoming req see
system.mem_ctrls2.wrQLenPdf::8                      1                       # What write queue length does an incoming req see
system.mem_ctrls2.wrQLenPdf::9                      1                       # What write queue length does an incoming req see
system.mem_ctrls2.wrQLenPdf::10                     1                       # What write queue length does an incoming req see
system.mem_ctrls2.wrQLenPdf::11                     1                       # What write queue length does an incoming req see
system.mem_ctrls2.wrQLenPdf::12                     1                       # What write queue length does an incoming req see
system.mem_ctrls2.wrQLenPdf::13                     1                       # What write queue length does an incoming req see
system.mem_ctrls2.wrQLenPdf::14                     1                       # What write queue length does an incoming req see
system.mem_ctrls2.wrQLenPdf::15                   245                       # What write queue length does an incoming req see
system.mem_ctrls2.wrQLenPdf::16                   297                       # What write queue length does an incoming req see
system.mem_ctrls2.wrQLenPdf::17                   690                       # What write queue length does an incoming req see
system.mem_ctrls2.wrQLenPdf::18                   944                       # What write queue length does an incoming req see
system.mem_ctrls2.wrQLenPdf::19                   987                       # What write queue length does an incoming req see
system.mem_ctrls2.wrQLenPdf::20                  1001                       # What write queue length does an incoming req see
system.mem_ctrls2.wrQLenPdf::21                   992                       # What write queue length does an incoming req see
system.mem_ctrls2.wrQLenPdf::22                   987                       # What write queue length does an incoming req see
[...]
system.ruby.L2Cache_Controller.M.L1_GET_INSTR |          14     25.00%     25.00% |           0      0.00%     25.00% |           0      0.00%     25.00% |           0      0.00%     25.00% |           0      0.00%     25.00% |           0      0.00%     25.00% |           0      0.00%     25.00% |           0      0.00%     25.00% |          14     25.00%     50.00% |          14     25.00%     75.00% |           0      0.00%     75.00% |           0      0.00%     75.00% |           0      0.00%     75.00% |           0      0.00%     75.00% |          14     25.00%    100.00% |           0      0.00%    100.00%
system.ruby.L2Cache_Controller.M.L1_GET_INSTR::total           56                      
system.ruby.L2Cache_Controller.M.L1_GETS |       10582      6.22%      6.22% |       10655      6.26%     12.48% |       10553      6.20%     18.68% |       10827      6.36%     25.04% |       10396      6.11%     31.14% |       10214      6.00%     37.14% |       10349      6.08%     43.22% |       10566      6.21%     49.43% |       10588      6.22%     55.65% |       10372      6.09%     61.75% |       10576      6.21%     67.96% |       11338      6.66%     74.62% |       10953      6.43%     81.05% |       11172      6.56%     87.62% |       10966      6.44%     94.06% |       10110      5.94%    100.00%
system.ruby.L2Cache_Controller.M.L1_GETS::total       170217                      
system.ruby.L2Cache_Controller.M.L1_GETX |        1256      6.32%      6.32% |        1311      6.60%     12.91% |        1306      6.57%     19.48% |        1239      6.23%     25.72% |        1277      6.42%     32.14% |        1199      6.03%     38.17% |        1155      5.81%     43.98% |        1324      6.66%     50.64% |        1202      6.05%     56.69% |        1277      6.42%     63.12% |        1242      6.25%     69.36% |        1216      6.12%     75.48% |        1203      6.05%     81.53% |        1141      5.74%     87.27% |        1244      6.26%     93.53% |        1286      6.47%    100.00%
system.ruby.L2Cache_Controller.M.L1_GETX::total        19878                      
system.ruby.L2Cache_Controller.M.L2_Replacement |        3990      6.28%      6.28% |        4023      6.33%     12.61% |        3936      6.20%     18.81% |        3969      6.25%     25.05% |        3897      6.13%     31.19% |        3962      6.24%     37.42% |        3933      6.19%     43.62% |        3928      6.18%     49.80% |        3997      6.29%     56.09% |        3873      6.10%     62.19% |        3983      6.27%     68.45% |        3954      6.22%     74.68% |        3946      6.21%     80.89% |        4032      6.35%     87.23% |        4080      6.42%     93.66% |        4030      6.34%    100.00%
system.ruby.L2Cache_Controller.M.L2_Replacement::total        63533                      
system.ruby.L2Cache_Controller.M.L2_Replacement_clean |        3048      6.33%      6.33% |        2884      5.99%     12.32% |        2885      5.99%     18.32% |        3005      6.24%     24.56% |        2902      6.03%     30.59% |        2992      6.22%     36.81% |        2986      6.20%     43.01% |        3072      6.38%     49.39% |        3078      6.39%     55.79% |        2925      6.08%     61.86% |        3003      6.24%     68.10% |        3059      6.36%     74.46% |        3141      6.53%     80.98% |        3063      6.36%     87.35% |        3048      6.33%     93.68% |        3042      6.32%    100.00%
system.ruby.L2Cache_Controller.M.L2_Replacement_clean::total        48133                      
system.ruby.L2Cache_Controller.MT.L1_GETS |          70      3.97%      3.97% |          70      3.97%      7.94% |          98      5.56%     13.49% |          98      5.56%     19.05% |          98      5.56%     24.60% |         140      7.94%     32.54% |         140      7.94%     40.48% |         140      7.94%     48.41% |         138      7.82%     56.24% |         138      7.82%     64.06% |         136      7.71%     71.77% |         134      7.60%     79.37% |         112      6.35%     85.71% |         112      6.35%     92.06% |          70      3.97%     96.03% |          70      3.97%    100.00%
system.ruby.L2Cache_Controller.MT.L1_GETS::total         1764                      
system.ruby.L2Cache_Controller.MT.L1_GETX |           0      0.00%      0.00% |           0      0.00%      0.00% |           0      0.00%      0.00% |           0      0.00%      0.00% |           0      0.00%      0.00% |           0      0.00%      0.00% |           0      0.00%      0.00% |           0      0.00%      0.00% |           1     14.29%     14.29% |           1     14.29%     28.57% |           2     28.57%     57.14% |           3     42.86%    100.00% |           0      0.00%    100.00% |           0      0.00%    100.00% |           0      0.00%    100.00% |           0      0.00%    100.00%
system.ruby.L2Cache_Controller.MT.L1_GETX::total            7                      
system.ruby.L2Cache_Controller.MT.L1_PUTX |       48976      6.25%      6.25% |       48977      6.25%     12.50% |       48626      6.21%     18.71% |       49168      6.28%     24.98% |       48543      6.20%     31.18% |       48446      6.18%     37.36% |       48605      6.20%     43.57% |       49029      6.26%     49.83% |       49021      6.26%     56.08% |       48569      6.20%     62.28% |       48913      6.24%     68.53% |       49680      6.34%     74.87% |       49447      6.31%     81.18% |       49570      6.33%     87.50% |       49346      6.30%     93.80% |       48553      6.20%    100.00%
system.ruby.L2Cache_Controller.MT.L1_PUTX::total       783469                      
system.ruby.L2Cache_Controller.MT.L2_Replacement |           8      7.14%      7.14% |           6      5.36%     12.50% |          13     11.61%     24.11% |          12     10.71%     34.82% |           8      7.14%     41.96% |          11      9.82%     51.79% |           7      6.25%     58.04% |           6      5.36%     63.39% |          11      9.82%     73.21% |           4      3.57%     76.79% |           6      5.36%     82.14% |           4      3.57%     85.71% |           5      4.46%     90.18% |           3      2.68%     92.86% |           7      6.25%     99.11% |           1      0.89%    100.00%
system.ruby.L2Cache_Controller.MT.L2_Replacement::total          112                      
system.ruby.L2Cache_Controller.MT.L2_Replacement_clean |          18      5.29%      5.29% |          22      6.47%     11.76% |          14      4.12%     15.88% |          17      5.00%     20.88% |          21      6.18%     27.06% |          17      5.00%     32.06% |          22      6.47%     38.53% |          19      5.59%     44.12% |          18      5.29%     49.41% |          18      5.29%     54.71% |          25      7.35%     62.06% |          19      5.59%     67.65% |          25      7.35%     75.00% |          32      9.41%     84.41% |          22      6.47%     90.88% |          31      9.12%    100.00%
system.ruby.L2Cache_Controller.MT.L2_Replacement_clean::total          340                      
system.ruby.L2Cache_Controller.M_I.L1_GET_INSTR |           0      0.00%      0.00% |           0      0.00%      0.00% |           0      0.00%      0.00% |           0      0.00%      0.00% |           0      0.00%      0.00% |           0      0.00%      0.00% |           0      0.00%      0.00% |           0      0.00%      0.00% |           0      0.00%      0.00% |           0      0.00%      0.00% |           0      0.00%      0.00% |           1    100.00%    100.00% |           0      0.00%    100.00% |           0      0.00%    100.00% |           0      0.00%    100.00% |           0      0.00%    100.00%
system.ruby.L2Cache_Controller.M_I.L1_GET_INSTR::total            1                      
system.ruby.L2Cache_Controller.M_I.Mem_Ack |        7616      6.28%      6.28% |        7544      6.22%     12.50% |        7441      6.13%     18.63% |        7535      6.21%     24.85% |        7425      6.12%     30.97% |        7594      6.26%     37.23% |        7546      6.22%     43.45% |        7590      6.26%     49.71% |        7738      6.38%     56.09% |        7289      6.01%     62.10% |        7532      6.21%     68.31% |        7606      6.27%     74.58% |        7682      6.33%     80.91% |        7694      6.34%     87.25% |        7793      6.43%     93.68% |        7666      6.32%    100.00%
system.ruby.L2Cache_Controller.M_I.Mem_Ack::total       121291                      
system.ruby.L2Cache_Controller.MT_I.WB_Data |           2      5.00%      5.00% |           4     10.00%     15.00% |           5     12.50%     27.50% |           6     15.00%     42.50% |           2      5.00%     47.50% |           3      7.50%     55.00% |           3      7.50%     62.50% |           2      5.00%     67.50% |           4     10.00%     77.50% |           2      5.00%     82.50% |           2      5.00%     87.50% |           2      5.00%     92.50% |           1      2.50%     95.00% |           0      0.00%     95.00% |           1      2.50%     97.50% |           1      2.50%    100.00%
system.ruby.L2Cache_Controller.MT_I.WB_Data::total           40                      
system.ruby.L2Cache_Controller.MT_I.Ack_all |           6      8.33%      8.33% |           2      2.78%     11.11% |           8     11.11%     22.22% |           6      8.33%     30.56% |           6      8.33%     38.89% |           8     11.11%     50.00% |           4      5.56%     55.56% |           4      5.56%     61.11% |           7      9.72%     70.83% |           2      2.78%     73.61% |           4      5.56%     79.17% |           2      2.78%     81.94% |           4      5.56%     87.50% |           3      4.17%     91.67% |           6      8.33%    100.00% |           0      0.00%    100.00%
system.ruby.L2Cache_Controller.MT_I.Ack_all::total           72                      
system.ruby.L2Cache_Controller.MCT_I.WB_Data |          18      5.94%      5.94% |          22      7.26%     13.20% |          14      4.62%     17.82% |          16      5.28%     23.10% |          18      5.94%     29.04% |          15      4.95%     33.99% |          20      6.60%     40.59% |          16      5.28%     45.87% |          16      5.28%     51.16% |          16      5.28%     56.44% |          18      5.94%     62.38% |          17      5.61%     67.99% |          20      6.60%     74.59% |          27      8.91%     83.50% |          20      6.60%     90.10% |          30      9.90%    100.00%
system.ruby.L2Cache_Controller.MCT_I.WB_Data::total          303                      
system.ruby.L2Cache_Controller.MCT_I.Ack_all |           0      0.00%      0.00% |           0      0.00%      0.00% |           0      0.00%      0.00% |           1      2.70%      2.70% |           3      8.11%     10.81% |           2      5.41%     16.22% |           2      5.41%     21.62% |           3      8.11%     29.73% |           2      5.41%     35.14% |           2      5.41%     40.54% |           7     18.92%     59.46% |           2      5.41%     64.86% |           5     13.51%     78.38% |           5     13.51%     91.89% |           2      5.41%     97.30% |           1      2.70%    100.00%
system.ruby.L2Cache_Controller.MCT_I.Ack_all::total           37                      
system.ruby.L2Cache_Controller.I_I.Ack_all |         551      6.03%      6.03% |         609      6.66%     12.69% |         592      6.47%     19.16% |         530      5.80%     24.96% |         595      6.51%     31.46% |         609      6.66%     38.12% |         597      6.53%     44.65% |         564      6.17%     50.82% |         633      6.92%     57.74% |         468      5.12%     62.86% |         512      5.60%     68.46% |         565      6.18%     74.64% |         561      6.14%     80.77% |         562      6.15%     86.92% |         636      6.96%     93.88% |         560      6.12%    100.00%
system.ruby.L2Cache_Controller.I_I.Ack_all::total         9144                      
system.ruby.L2Cache_Controller.S_I.Ack   |           1      3.45%      3.45% |           0      0.00%      3.45% |           1      3.45%      6.90% |           2      6.90%     13.79% |           2      6.90%     20.69% |           3     10.34%     31.03% |           1      3.45%     34.48% |           1      3.45%     37.93% |           1      3.45%     41.38% |           1      3.45%     44.83% |           3     10.34%     55.17% |           5     17.24%     72.41% |           4     13.79%     86.21% |           2      6.90%     93.10% |           0      0.00%     93.10% |           2      6.90%    100.00%
system.ruby.L2Cache_Controller.S_I.Ack::total           29                      
system.ruby.L2Cache_Controller.S_I.Ack_all |           1      3.45%      3.45% |           0      0.00%      3.45% |           1      3.45%      6.90% |           2      6.90%     13.79% |           2      6.90%     20.69% |           3     10.34%     31.03% |           1      3.45%     34.48% |           1      3.45%     37.93% |           1      3.45%     41.38% |           1      3.45%     44.83% |           3     10.34%     55.17% |           5     17.24%     72.41% |           4     13.79%     86.21% |           2      6.90%     93.10% |           0      0.00%     93.10% |           2      6.90%    100.00%
system.ruby.L2Cache_Controller.S_I.Ack_all::total           29                      
system.ruby.L2Cache_Controller.ISS.Mem_Data |       29168      6.27%      6.27% |       28937      6.22%     12.49% |       28664      6.16%     18.65% |       29065      6.25%     24.89% |       28828      6.20%     31.09% |       29020      6.24%     37.33% |       29089      6.25%     43.58% |       29125      6.26%     49.84% |       29248      6.29%     56.12% |       28979      6.23%     62.35% |       29110      6.26%     68.61% |       29185      6.27%     74.88% |       29337      6.30%     81.18% |       29274      6.29%     87.48% |       29134      6.26%     93.74% |       29139      6.26%    100.00%
system.ruby.L2Cache_Controller.ISS.Mem_Data::total       465302                      
system.ruby.L2Cache_Controller.IS.Mem_Data |        1356      6.41%      6.41% |        1363      6.44%     12.85% |        1491      7.05%     19.89% |        1294      6.11%     26.01% |        1344      6.35%     32.36% |        1333      6.30%     38.66% |        1277      6.03%     44.69% |        1288      6.09%     50.78% |        1362      6.44%     57.21% |        1160      5.48%     62.69% |        1246      5.89%     68.58% |        1262      5.96%     74.55% |        1237      5.85%     80.39% |        1298      6.13%     86.52% |        1514      7.15%     93.68% |        1338      6.32%    100.00%
system.ruby.L2Cache_Controller.IS.Mem_Data::total        21163                      
system.ruby.L2Cache_Controller.IM.Mem_Data |        8894      6.22%      6.22% |        8998      6.29%     12.50% |        9025      6.31%     18.81% |        8975      6.27%     25.09% |        8979      6.28%     31.36% |        8965      6.27%     37.63% |        8964      6.27%     43.89% |        8963      6.26%     50.16% |        8923      6.24%     56.39% |        8891      6.21%     62.61% |        8936      6.25%     68.85% |        8893      6.22%     75.07% |        8891      6.21%     81.28% |        8918      6.23%     87.51% |        8926      6.24%     93.75% |        8939      6.25%    100.00%
system.ruby.L2Cache_Controller.IM.Mem_Data::total       143080                      
system.ruby.L2Cache_Controller.SS_MB.Exclusive_Unblock |          42      3.92%      3.92% |          42      3.92%      7.84% |          70      6.54%     14.38% |          56      5.23%     19.61% |          56      5.23%     24.84% |          84      7.84%     32.68% |          84      7.84%     40.52% |          84      7.84%     48.37% |          83      7.75%     56.12% |          83      7.75%     63.87% |          82      7.66%     71.52% |          81      7.56%     79.08% |          70      6.54%     85.62% |          70      6.54%     92.16% |          42      3.92%     96.08% |          42      3.92%    100.00%
system.ruby.L2Cache_Controller.SS_MB.Exclusive_Unblock::total         1071                      
system.ruby.L2Cache_Controller.MT_MB.Exclusive_Unblock |       49900      6.25%      6.25% |       49901      6.25%     12.50% |       49548      6.21%     18.70% |       50106      6.28%     24.98% |       49480      6.20%     31.18% |       49398      6.19%     37.36% |       49557      6.21%     43.57% |       49978      6.26%     49.83% |       49962      6.26%     56.09% |       49520      6.20%     62.29% |       49866      6.25%     68.53% |       50635      6.34%     74.87% |       50384      6.31%     81.18% |       50505      6.33%     87.51% |       50270      6.30%     93.80% |       49474      6.20%    100.00%
system.ruby.L2Cache_Controller.MT_MB.Exclusive_Unblock::total       798484                      
system.ruby.L2Cache_Controller.MT_IIB.WB_Data |          69      3.95%      3.95% |          70      4.01%      7.96% |          98      5.61%     13.57% |          97      5.55%     19.12% |          98      5.61%     24.73% |         138      7.90%     32.63% |         139      7.96%     40.58% |         137      7.84%     48.43% |         136      7.78%     56.21% |         137      7.84%     64.05% |         135      7.73%     71.78% |         134      7.67%     79.45% |         112      6.41%     85.86% |         110      6.30%     92.16% |          69      3.95%     96.11% |          68      3.89%    100.00%
system.ruby.L2Cache_Controller.MT_IIB.WB_Data::total         1747                      
system.ruby.L2Cache_Controller.MT_IIB.Unblock |           1      5.88%      5.88% |           0      0.00%      5.88% |           0      0.00%      5.88% |           1      5.88%     11.76% |           0      0.00%     11.76% |           2     11.76%     23.53% |           1      5.88%     29.41% |           3     17.65%     47.06% |           2     11.76%     58.82% |           1      5.88%     64.71% |           1      5.88%     70.59% |           0      0.00%     70.59% |           0      0.00%     70.59% |           2     11.76%     82.35% |           1      5.88%     88.24% |           2     11.76%    100.00%
system.ruby.L2Cache_Controller.MT_IIB.Unblock::total           17                      
system.ruby.L2Cache_Controller.MT_IB.WB_Data |           1      5.88%      5.88% |           0      0.00%      5.88% |           0      0.00%      5.88% |           1      5.88%     11.76% |           0      0.00%     11.76% |           2     11.76%     23.53% |           1      5.88%     29.41% |           3     17.65%     47.06% |           2     11.76%     58.82% |           1      5.88%     64.71% |           1      5.88%     70.59% |           0      0.00%     70.59% |           0      0.00%     70.59% |           2     11.76%     82.35% |           1      5.88%     88.24% |           2     11.76%    100.00%
system.ruby.L2Cache_Controller.MT_IB.WB_Data::total           17                      
system.ruby.L2Cache_Controller.MT_SB.Unblock |          69      3.95%      3.95% |          70      4.01%      7.96% |          98      5.61%     13.57% |          97      5.55%     19.12% |          98      5.61%     24.73% |         138      7.90%     32.63% |         139      7.96%     40.58% |         137      7.84%     48.43% |         136      7.78%     56.21% |         137      7.84%     64.05% |         135      7.73%     71.78% |         134      7.67%     79.45% |         112      6.41%     85.86% |         110      6.30%     92.16% |          69      3.95%     96.11% |          68      3.89%    100.00%
system.ruby.L2Cache_Controller.MT_SB.Unblock::total         1747                      

---------- End Simulation Statistics   ----------
