
---------- Begin Simulation Statistics ----------
sim_seconds                                  0.021152                       # Number of seconds simulated
sim_ticks                                 21152334500                       # Number of ticks simulated
final_tick                                21152334500                       # Number of ticks from beginning of simulation (restored from checkpoints and never reset)
sim_freq                                 1000000000000                       # Frequency of simulated ticks
host_inst_rate                                  84401                       # Simulator instruction rate (inst/s)
host_op_rate                                   145481                       # Simulator op (including micro ops) rate (op/s)
host_tick_rate                               24124113                       # Simulator tick rate (ticks/s)
host_mem_usage                                1155344                       # Number of bytes of host memory used
host_seconds                                   876.81                       # Real time elapsed on the host
sim_insts                                    74004020                       # Number of instructions simulated
sim_ops                                     127559328                       # Number of ops (including micro ops) simulated
system.voltage_domain.voltage                       1                       # Voltage in Volts
system.clk_domain.clock                          1000                       # Clock period in ticks
system.mem_ctrls0.pwrStateResidencyTicks::UNDEFINED  21152334500                       # Cumulative time (in ticks) in various power states
system.mem_ctrls0.bytes_read::ruby.dir_cntrl0      3484544                       # Number of bytes read from this memory
system.mem_ctrls0.bytes_read::total           3484544                       # Number of bytes read from this memory
system.mem_ctrls0.num_reads::ruby.dir_cntrl0        54446                       # Number of read requests responded to by this memory
system.mem_ctrls0.num_reads::total              54446                       # Number of read requests responded to by this memory
system.mem_ctrls0.bw_read::ruby.dir_cntrl0    164735670                       # Total read bandwidth from this memory (bytes/s)
system.mem_ctrls0.bw_read::total            164735670                       # Total read bandwidth from this memory (bytes/s)
system.mem_ctrls0.bw_total::ruby.dir_cntrl0    164735670                       # Total bandwidth to/from this memory (bytes/s)
system.mem_ctrls0.bw_total::total           164735670                       # Total bandwidth to/from this memory (bytes/s)
system.mem_ctrls0.readReqs                      54446                       # Number of read requests accepted
system.mem_ctrls0.avgNetLat                      0.00                       # Average network latency to DRAM controller
system.mem_ctrls0.writeReqs                         0                       # Number of write requests accepted
system.mem_ctrls0.readBursts                    54446                       # Number of DRAM read bursts, including those serviced by the write queue
system.mem_ctrls0.writeBursts                       0                       # Number of DRAM write bursts, including those merged in the write queue
system.mem_ctrls0.bytesReadDRAM               3484544                       # Total number of bytes read from DRAM
system.mem_ctrls0.bytesReadWrQ                      0                       # Total number of bytes read from write queue
system.mem_ctrls0.bytesWritten                      0                       # Total number of bytes written to DRAM
system.mem_ctrls0.bytesReadSys                3484544                       # Total read bytes from the system interface side
system.mem_ctrls0.bytesWrittenSys                   0                       # Total written bytes from the system interface side
system.mem_ctrls0.servicedByWrQ                     0                       # Number of DRAM read bursts serviced by the write queue
system.mem_ctrls0.mergedWrBursts                    0                       # Number of DRAM write bursts merged with an existing one
system.mem_ctrls0.neitherReadNorWriteReqs            0                       # Number of requests that are neither read nor write
system.mem_ctrls0.perBankRdBursts::0             4023                       # Per bank write bursts
system.mem_ctrls0.perBankRdBursts::1             3763                       # Per bank write bursts
system.mem_ctrls0.perBankRdBursts::2             3524                       # Per bank write bursts
system.mem_ctrls0.perBankRdBursts::3             3453                       # Per bank write bursts
system.mem_ctrls0.perBankRdBursts::4             3444                       # Per bank write bursts
system.mem_ctrls0.perBankRdBursts::5             3275                       # Per bank write bursts
system.mem_ctrls0.perBankRdBursts::6             3317                       # Per bank write bursts
system.mem_ctrls0.perBankRdBursts::7             3071                       # Per bank write bursts
system.mem_ctrls0.perBankRdBursts::8             2494                       # Per bank write bursts
system.mem_ctrls0.perBankRdBursts::9             2722                       # Per bank write bursts
system.mem_ctrls0.perBankRdBursts::10            2912                       # Per bank write bursts
system.mem_ctrls0.perBankRdBursts::11            3185                       # Per bank write bursts
system.mem_ctrls0.perBankRdBursts::12            3923                       # Per bank write bursts
system.mem_ctrls0.perBankRdBursts::13            3754                       # Per bank write bursts
system.mem_ctrls0.perBankRdBursts::14            3640                       # Per bank write bursts
system.mem_ctrls0.perBankRdBursts::15            3946                       # Per bank write bursts
system.mem_ctrls0.perBankWrBursts::0                0                       # Per bank write bursts
system.mem_ctrls0.perBankWrBursts::1                0                       # Per bank write bursts
system.mem_ctrls0.perBankWrBursts::2                0                       # Per bank write bursts
system.mem_ctrls0.perBankWrBursts::3                0                       # Per bank write bursts
system.mem_ctrls0.perBankWrBursts::4                0                       # Per bank write bursts
system.mem_ctrls0.perBankWrBursts::5                0                       # Per bank write bursts
system.mem_ctrls0.perBankWrBursts::6                0                       # Per bank write bursts
system.mem_ctrls0.perBankWrBursts::7                0                       # Per bank write bursts
system.mem_ctrls0.perBankWrBursts::8                0                       # Per bank write bursts
system.mem_ctrls0.perBankWrBursts::9                0                       # Per bank write bursts
system.mem_ctrls0.perBankWrBursts::10               0                       # Per bank write bursts
system.mem_ctrls0.perBankWrBursts::11               0                       # Per bank write bursts
system.mem_ctrls0.perBankWrBursts::12               0                       # Per bank write bursts
system.mem_ctrls0.perBankWrBursts::13               0                       # Per bank write bursts
system.mem_ctrls0.perBankWrBursts::14               0                       # Per bank write bursts
system.mem_ctrls0.perBankWrBursts::15               0                       # Per bank write bursts
system.mem_ctrls0.numRdRetry                        0                       # Number of times read queue was full causing retry
system.mem_ctrls0.numWrRetry                        0                       # Number of times write queue was full causing retry
system.mem_ctrls0.totGap                  21151325000                       # Total gap between requests
system.mem_ctrls0.readPktSize::0                    0                       # Read request sizes (log2)
system.mem_ctrls0.readPktSize::1                    0                       # Read request sizes (log2)
system.mem_ctrls0.readPktSize::2                    0                       # Read request sizes (log2)
system.mem_ctrls0.readPktSize::3                    0                       # Read request sizes (log2)
system.mem_ctrls0.readPktSize::4                    0                       # Read request sizes (log2)
system.mem_ctrls0.readPktSize::5                    0                       # Read request sizes (log2)
system.mem_ctrls0.readPktSize::6                54446                       # Read request sizes (log2)
system.mem_ctrls0.writePktSize::0                   0                       # Write request sizes (log2)
system.mem_ctrls0.writePktSize::1                   0                       # Write request sizes (log2)
system.mem_ctrls0.writePktSize::2                   0                       # Write request sizes (log2)
system.mem_ctrls0.writePktSize::3                   0                       # Write request sizes (log2)
system.mem_ctrls0.writePktSize::4                   0                       # Write request sizes (log2)
system.mem_ctrls0.writePktSize::5                   0                       # Write request sizes (log2)
system.mem_ctrls0.writePktSize::6                   0                       # Write request sizes (log2)
system.mem_ctrls0.rdQLenPdf::0                  37095                       # What read queue length does an incoming req see
system.mem_ctrls0.rdQLenPdf::1                  12184                       # What read queue length does an incoming req see
system.mem_ctrls0.rdQLenPdf::2                   3296                       # What read queue length does an incoming req see
system.mem_ctrls0.rdQLenPdf::3                   1171                       # What read queue length does an incoming req see
system.mem_ctrls0.rdQLenPdf::4                    445                       # What read queue length does an incoming req see
system.mem_ctrls0.rdQLenPdf::5                    169                       # What read queue length does an incoming req see
system.mem_ctrls0.rdQLenPdf::6                     52                       # What read queue length does an incoming req see
system.mem_ctrls0.rdQLenPdf::7                     22                       # What read queue length does an incoming req see
system.mem_ctrls0.rdQLenPdf::8                      8                       # What read queue length does an incoming req see
system.mem_ctrls0.rdQLenPdf::9                      2                       # What read queue length does an incoming req see
system.mem_ctrls0.rdQLenPdf::10                     2                       # What read queue length does an incoming req see
system.mem_ctrls0.rdQLenPdf::11                     0                       # What read queue length does an incoming req see
system.mem_ctrls0.rdQLenPdf::12                     0                       # What read queue length does an incoming req see
system.mem_ctrls0.rdQLenPdf::13                     0                       # What read queue length does an incoming req see
system.mem_ctrls0.rdQLenPdf::14                     0                       # What read queue length does an incoming req see
system.mem_ctrls0.rdQLenPdf::15                     0                       # What read queue length does an incoming req see
system.mem_ctrls0.rdQLenPdf::16                     0                       # What read queue length does an incoming req see
system.mem_ctrls0.rdQLenPdf::17                     0                       # What read queue length does an incoming req see
system.mem_ctrls0.rdQLenPdf::18                     0                       # What read queue length does an incoming req see
system.mem_ctrls0.rdQLenPdf::19                     0                       # What read queue length does an incoming req see
system.mem_ctrls0.rdQLenPdf::20                     0                       # What read queue length does an incoming req see
system.mem_ctrls0.rdQLenPdf::21                     0                       # What read queue length does an incoming req see
system.mem_ctrls0.rdQLenPdf::22                     0                       # What read queue length does an incoming req see
system.mem_ctrls0.rdQLenPdf::23                     0                       # What read queue length does an incoming req see
system.mem_ctrls0.rdQLenPdf::24                     0                       # What read queue length does an incoming req see
system.mem_ctrls0.rdQLenPdf::25                     0                       # What read queue length does an incoming req see
system.mem_ctrls0.rdQLenPdf::26                     0                       # What read queue length does an incoming req see
system.mem_ctrls0.rdQLenPdf::27                     0                       # What read queue length does an incoming req see
system.mem_ctrls0.rdQLenPdf::28                     0                       # What read queue length does an incoming req see
system.mem_ctrls0.rdQLenPdf::29                     0                       # What read queue length does an incoming req see
system.mem_ctrls0.rdQLenPdf::30                     0                       # What read queue length does an incoming req see
system.mem_ctrls0.rdQLenPdf::31                     0                       # What read queue length does an incoming req see
system.mem_ctrls0.wrQLenPdf::0                      0                       # What write queue length does an incoming req see
system.mem_ctrls0.wrQLenPdf::1                      0                       # What write queue length does an incoming req see
system.mem_ctrls0.wrQLenPdf::2                      0                       # What write queue length does an incoming req see
system.mem_ctrls0.wrQLenPdf::3                      0                       # What write queue length does an incoming req see
system.mem_ctrls0.wrQLenPdf::4                      0                       # What write queue length does an incoming req see
system.mem_ctrls0.wrQLenPdf::5                      0                       # What write queue length does an incoming req see
system.mem_ctrls0.wrQLenPdf::6                      0                       # What write queue length does an incoming req see
system.mem_ctrls0.wrQLenPdf::7                      0                       # What write queue length does an incoming req see
system.mem_ctrls0.wrQLenPdf::8                      0                       # What write queue length does an incoming req see
system.mem_ctrls0.wrQLenPdf::9                      0                       # What write queue length does an incoming req see
system.mem_ctrls0.wrQLenPdf::10                     0                       # What write queue length does an incoming req see
system.mem_ctrls0.wrQLenPdf::11                     0                       # What write queue length does an incoming req see
system.mem_ctrls0.wrQLenPdf::12                     0                       # What write queue length does an incoming req see
system.mem_ctrls0.wrQLenPdf::13                     0                       # What write queue length does an incoming req see
system.mem_ctrls0.wrQLenPdf::14                     0                       # What write queue length does an incoming req see
system.mem_ctrls0.wrQLenPdf::15                     0                       # What write queue length does an incoming req see
system.mem_ctrls0.wrQLenPdf::16                     0                       # What write queue length does an incoming req see
system.mem_ctrls0.wrQLenPdf::17                     0                       # What write queue length does an incoming req see
system.mem_ctrls0.wrQLenPdf::18                     0                       # What write queue length does an incoming req see
system.mem_ctrls0.wrQLenPdf::19                     0                       # What write queue length does an incoming req see
system.mem_ctrls0.wrQLenPdf::20                     0                       # What write queue length does an incoming req see
system.mem_ctrls0.wrQLenPdf::21                     0                       # What write queue length does an incoming req see
system.mem_ctrls0.wrQLenPdf::22                     0                       # What write queue length does an incoming req see
system.mem_ctrls0.wrQLenPdf::23                     0                       # What write queue length does an incoming req see
system.mem_ctrls0.wrQLenPdf::24                     0                       # What write queue length does an incoming req see
system.mem_ctrls0.wrQLenPdf::25                     0                       # What write queue length does an incoming req see
system.mem_ctrls0.wrQLenPdf::26                     0                       # What write queue length does an incoming req see
system.mem_ctrls0.wrQLenPdf::27                     0                       # What write queue length does an incoming req see
system.mem_ctrls0.wrQLenPdf::28                     0                       # What write queue length does an incoming req see
system.mem_ctrls0.wrQLenPdf::29                     0                       # What write queue length does an incoming req see
system.mem_ctrls0.wrQLenPdf::30                     0                       # What write queue length does an incoming req see
system.mem_ctrls0.wrQLenPdf::31                     0                       # What write queue length does an incoming req see
system.mem_ctrls0.wrQLenPdf::32                     0                       # What write queue length does an incoming req see
system.mem_ctrls0.wrQLenPdf::33                     0                       # What write queue length does an incoming req see
system.mem_ctrls0.wrQLenPdf::34                     0                       # What write queue length does an incoming req see
system.mem_ctrls0.wrQLenPdf::35                     0                       # What write queue length does an incoming req see
system.mem_ctrls0.wrQLenPdf::36                     0                       # What write queue length does an incoming req see
system.mem_ctrls0.wrQLenPdf::37                     0                       # What write queue length does an incoming req see
system.mem_ctrls0.wrQLenPdf::38                     0                       # What write queue length does an incoming req see
system.mem_ctrls0.wrQLenPdf::39                     0                       # What write queue length does an incoming req see
system.mem_ctrls0.wrQLenPdf::40                     0                       # What write queue length does an incoming req see
system.mem_ctrls0.wrQLenPdf::41                     0                       # What write queue length does an incoming req see
system.mem_ctrls0.wrQLenPdf::42                     0                       # What write queue length does an incoming req see
system.mem_ctrls0.wrQLenPdf::43                     0                       # What write queue length does an incoming req see
system.mem_ctrls0.wrQLenPdf::44                     0                       # What write queue length does an incoming req see
system.mem_ctrls0.wrQLenPdf::45                     0                       # What write queue length does an incoming req see
system.mem_ctrls0.wrQLenPdf::46                     0                       # What write queue length does an incoming req see
system.mem_ctrls0.wrQLenPdf::47                     0                       # What write queue length does an incoming req see
system.mem_ctrls0.wrQLenPdf::48                     0                       # What write queue length does an incoming req see
system.mem_ctrls0.wrQLenPdf::49                     0                       # What write queue length does an incoming req see
system.mem_ctrls0.wrQLenPdf::50                     0                       # What write queue length does an incoming req see
system.mem_ctrls0.wrQLenPdf::51                     0                       # What write queue length does an incoming req see
system.mem_ctrls0.wrQLenPdf::52                     0                       # What write queue length does an incoming req see
system.mem_ctrls0.wrQLenPdf::53                     0                       # What write queue length does an incoming req see
system.mem_ctrls0.wrQLenPdf::54                     0                       # What write queue length does an incoming req see
system.mem_ctrls0.wrQLenPdf::55                     0                       # What write queue length does an incoming req see
system.mem_ctrls0.wrQLenPdf::56                     0                       # What write queue length does an incoming req see
system.mem_ctrls0.wrQLenPdf::57                     0                       # What write queue length does an incoming req see
system.mem_ctrls0.wrQLenPdf::58                     0                       # What write queue length does an incoming req see
system.mem_ctrls0.wrQLenPdf::59                     0                       # What write queue length does an incoming req see
system.mem_ctrls0.wrQLenPdf::60                     0                       # What write queue length does an incoming req see
system.mem_ctrls0.wrQLenPdf::61                     0                       # What write queue length does an incoming req see
system.mem_ctrls0.wrQLenPdf::62                     0                       # What write queue length does an incoming req see
system.mem_ctrls0.wrQLenPdf::63                     0                       # What write queue length does an incoming req see
system.mem_ctrls0.bytesPerActivate::samples        33404                       # Bytes accessed per row activation
system.mem_ctrls0.bytesPerActivate::mean   104.292181                       # Bytes accessed per row activation
system.mem_ctrls0.bytesPerActivate::gmean    80.217338                       # Bytes accessed per row activation
system.mem_ctrls0.bytesPerActivate::stdev   117.473838                       # Bytes accessed per row activation
system.mem_ctrls0.bytesPerActivate::0-127        27990     83.79%     83.79% # Bytes accessed per row activation
system.mem_ctrls0.bytesPerActivate::128-255         2633      7.88%     91.67% # Bytes accessed per row activation
system.mem_ctrls0.bytesPerActivate::256-383          451      1.35%     93.02% # Bytes accessed per row activation
system.mem_ctrls0.bytesPerActivate::384-511          247      0.74%     93.76% # Bytes accessed per row activation
system.mem_ctrls0.bytesPerActivate::512-639         1985      5.94%     99.71% # Bytes accessed per row activation
system.mem_ctrls0.bytesPerActivate::640-767           78      0.23%     99.94% # Bytes accessed per row activation
system.mem_ctrls0.bytesPerActivate::768-895            8      0.02%     99.96% # Bytes accessed per row activation
system.mem_ctrls0.bytesPerActivate::896-1023            5      0.01%     99.98% # Bytes accessed per row activation
system.mem_ctrls0.bytesPerActivate::1024-1151            7      0.02%    100.00% # Bytes accessed per row activation
system.mem_ctrls0.bytesPerActivate::total        33404                       # Bytes accessed per row activation
system.mem_ctrls0.totQLat                  1403413500                       # Total ticks spent queuing
system.mem_ctrls0.totMemAccLat             2424276000                       # Total ticks spent from burst creation until serviced by the DRAM
system.mem_ctrls0.totBusLat                 272230000                       # Total ticks spent in databus transfers
system.mem_ctrls0.avgQLat                    25776.25                       # Average queueing delay per DRAM burst
system.mem_ctrls0.avgBusLat                   5000.00                       # Average bus latency per DRAM burst
system.mem_ctrls0.avgMemAccLat               44526.25                       # Average memory access latency per DRAM burst
system.mem_ctrls0.avgRdBW                      164.74                       # Average DRAM read bandwidth in MiByte/s
system.mem_ctrls0.avgWrBW                        0.00                       # Average achieved write bandwidth in MiByte/s
system.mem_ctrls0.avgRdBWSys                   164.74                       # Average system read bandwidth in MiByte/s
system.mem_ctrls0.avgWrBWSys                     0.00                       # Average system write bandwidth in MiByte/s
system.mem_ctrls0.peakBW                     12800.00                       # Theoretical peak bandwidth in MiByte/s
system.mem_ctrls0.busUtil                        1.29                       # Data bus utilization in percentage
system.mem_ctrls0.busUtilRead                    1.29                       # Data bus utilization in percentage for reads
system.mem_ctrls0.busUtilWrite                   0.00                       # Data bus utilization in percentage for writes
system.mem_ctrls0.avgRdQLen                      1.25                       # Average read queue length when enqueuing
system.mem_ctrls0.avgWrQLen                      0.00                       # Average write queue length when enqueuing
system.mem_ctrls0.readRowHits                   21036                       # Number of row buffer hits during reads
system.mem_ctrls0.writeRowHits                      0                       # Number of row buffer hits during writes
system.mem_ctrls0.readRowHitRate                38.64                       # Row buffer hit rate for reads
system.mem_ctrls0.writeRowHitRate                 nan                       # Row buffer hit rate for writes
system.mem_ctrls0.avgGap                    388482.62                       # Average gap between requests
system.mem_ctrls0.pageHitRate                   38.64                       # Row buffer hit rate, read and write combined
system.mem_ctrls0_0.actEnergy               104629560                       # Energy for activate commands per rank (pJ)
system.mem_ctrls0_0.preEnergy                55592955                       # Energy for precharge commands per rank (pJ)
system.mem_ctrls0_0.readEnergy              198991800                       # Energy for read commands per rank (pJ)
system.mem_ctrls0_0.writeEnergy                     0                       # Energy for write commands per rank (pJ)
system.mem_ctrls0_0.refreshEnergy        1139542560.000000                       # Energy for refresh commands per rank (pJ)
system.mem_ctrls0_0.actBackEnergy           608327940                       # Energy for active background per rank (pJ)
system.mem_ctrls0_0.preBackEnergy            27222240                       # Energy for precharge background per rank (pJ)
system.mem_ctrls0_0.actPowerDownEnergy     5526203010                       # Energy for active power-down per rank (pJ)
system.mem_ctrls0_0.prePowerDownEnergy      299745120                       # Energy for precharge power-down per rank (pJ)
system.mem_ctrls0_0.selfRefreshEnergy      1653997860                       # Energy for self refresh per rank (pJ)
system.mem_ctrls0_0.totalEnergy            9614253045                       # Total energy per rank (pJ)
system.mem_ctrls0_0.averagePower           454.524432                       # Core power per rank (mW)
system.mem_ctrls0_0.totalIdleTime         19746317750                       # Total Idle time Per DRAM Rank
system.mem_ctrls0_0.memoryStateTime::IDLE     15801750                       # Time in different power states
system.mem_ctrls0_0.memoryStateTime::REF    482154000                       # Time in different power states
system.mem_ctrls0_0.memoryStateTime::SREF   6847942000                       # Time in different power states
system.mem_ctrls0_0.memoryStateTime::PRE_PDN    780762250                       # Time in different power states
system.mem_ctrls0_0.memoryStateTime::ACT    906568000                       # Time in different power states
system.mem_ctrls0_0.memoryStateTime::ACT_PDN  12119106500                       # Time in different power states
system.mem_ctrls0_1.actEnergy               133917840                       # Energy for activate commands per rank (pJ)
system.mem_ctrls0_1.preEnergy                71175225                       # Energy for precharge commands per rank (pJ)
system.mem_ctrls0_1.readEnergy              189752640                       # Energy for read commands per rank (pJ)
system.mem_ctrls0_1.writeEnergy                     0                       # Energy for write commands per rank (pJ)
system.mem_ctrls0_1.refreshEnergy        928721040.000000                       # Energy for refresh commands per rank (pJ)
system.mem_ctrls0_1.actBackEnergy           596841300                       # Energy for active background per rank (pJ)
system.mem_ctrls0_1.preBackEnergy            22963200                       # Energy for precharge background per rank (pJ)
system.mem_ctrls0_1.actPowerDownEnergy     4390894110                       # Energy for active power-down per rank (pJ)
system.mem_ctrls0_1.prePowerDownEnergy      228861600                       # Energy for precharge power-down per rank (pJ)
system.mem_ctrls0_1.selfRefreshEnergy      2307299760                       # Energy for self refresh per rank (pJ)
system.mem_ctrls0_1.totalEnergy            8870426715                       # Total energy per rank (pJ)
system.mem_ctrls0_1.averagePower           419.359220                       # Core power per rank (mW)
system.mem_ctrls0_1.totalIdleTime         19783216000                       # Total Idle time Per DRAM Rank
system.mem_ctrls0_1.memoryStateTime::IDLE     14830500                       # Time in different power states
system.mem_ctrls0_1.memoryStateTime::REF    393004000                       # Time in different power states
system.mem_ctrls0_1.memoryStateTime::SREF   9558526250                       # Time in different power states
system.mem_ctrls0_1.memoryStateTime::PRE_PDN    595909000                       # Time in different power states
system.mem_ctrls0_1.memoryStateTime::ACT    960395750                       # Time in different power states
system.mem_ctrls0_1.memoryStateTime::ACT_PDN   9629669000                       # Time in different power states
system.mem_ctrls1.pwrStateResidencyTicks::UNDEFINED  21152334500                       # Cumulative time (in ticks) in various power states
system.mem_ctrls1.bytes_read::ruby.dir_cntrl1      3463936                       # Number of bytes read from this memory
system.mem_ctrls1.bytes_read::total           3463936                       # Number of bytes read from this memory
system.mem_ctrls1.num_reads::ruby.dir_cntrl1        54124                       # Number of read requests responded to by this memory
system.mem_ctrls1.num_reads::total              54124                       # Number of read requests responded to by this memory
system.mem_ctrls1.bw_read::ruby.dir_cntrl1    163761404                       # Total read bandwidth from this memory (bytes/s)
system.mem_ctrls1.bw_read::total            163761404                       # Total read bandwidth from this memory (bytes/s)
system.mem_ctrls1.bw_total::ruby.dir_cntrl1    163761404                       # Total bandwidth to/from this memory (bytes/s)
system.mem_ctrls1.bw_total::total           163761404                       # Total bandwidth to/from this memory (bytes/s)
system.mem_ctrls1.readReqs                      54124                       # Number of read requests accepted
system.mem_ctrls1.avgNetLat                      0.00                       # Average network latency to DRAM controller
system.mem_ctrls1.writeReqs                         0                       # Number of write requests accepted
system.mem_ctrls1.readBursts                    54124                       # Number of DRAM read bursts, including those serviced by the write queue
system.mem_ctrls1.writeBursts                       0                       # Number of DRAM write bursts, including those merged in the write queue
system.mem_ctrls1.bytesReadDRAM               3463936                       # Total number of bytes read from DRAM
system.mem_ctrls1.bytesReadWrQ                      0                       # Total number of bytes read from write queue
system.mem_ctrls1.bytesWritten                      0                       # Total number of bytes written to DRAM
system.mem_ctrls1.bytesReadSys                3463936                       # Total read bytes from the system interface side
system.mem_ctrls1.bytesWrittenSys                   0                       # Total written bytes from the system interface side
system.mem_ctrls1.servicedByWrQ                     0                       # Number of DRAM read bursts serviced by the write queue
system.mem_ctrls1.mergedWrBursts                    0                       # Number of DRAM write bursts merged with an existing one
system.mem_ctrls1.neitherReadNorWriteReqs            0                       # Number of requests that are neither read nor write
system.mem_ctrls1.perBankRdBursts::0             3937                       # Per bank write bursts
system.mem_ctrls1.perBankRdBursts::1             3732                       # Per bank write bursts
system.mem_ctrls1.perBankRdBursts::2             3506                       # Per bank write bursts
system.mem_ctrls1.perBankRdBursts::3             3417                       # Per bank write bursts
system.mem_ctrls1.perBankRdBursts::4             3421                       # Per bank write bursts
system.mem_ctrls1.perBankRdBursts::5             3249                       # Per bank write bursts
system.mem_ctrls1.perBankRdBursts::6             3291                       # Per bank write bursts
system.mem_ctrls1.perBankRdBursts::7             3080                       # Per bank write bursts
system.mem_ctrls1.perBankRdBursts::8             2495                       # Per bank write bursts
system.mem_ctrls1.perBankRdBursts::9             2683                       # Per bank write bursts
system.mem_ctrls1.perBankRdBursts::10            2872                       # Per bank write bursts
system.mem_ctrls1.perBankRdBursts::11            3154                       # Per bank write bursts
system.mem_ctrls1.perBankRdBursts::12            3938                       # Per bank write bursts
system.mem_ctrls1.perBankRdBursts::13            3781                       # Per bank write bursts
system.mem_ctrls1.perBankRdBursts::14            3658                       # Per bank write bursts
system.mem_ctrls1.perBankRdBursts::15            3910                       # Per bank write bursts
system.mem_ctrls1.perBankWrBursts::0                0                       # Per bank write bursts
system.mem_ctrls1.perBankWrBursts::1                0                       # Per bank write bursts
system.mem_ctrls1.perBankWrBursts::2                0                       # Per bank write bursts
system.mem_ctrls1.perBankWrBursts::3                0                       # Per bank write bursts
system.mem_ctrls1.perBankWrBursts::4                0                       # Per bank write bursts
system.mem_ctrls1.perBankWrBursts::5                0                       # Per bank write bursts
system.mem_ctrls1.perBankWrBursts::6                0                       # Per bank write bursts
system.mem_ctrls1.perBankWrBursts::7                0                       # Per bank write bursts
system.mem_ctrls1.perBankWrBursts::8                0                       # Per bank write bursts
system.mem_ctrls1.perBankWrBursts::9                0                       # Per bank write bursts
system.mem_ctrls1.perBankWrBursts::10               0                       # Per bank write bursts
system.mem_ctrls1.perBankWrBursts::11               0                       # Per bank write bursts
system.mem_ctrls1.perBankWrBursts::12               0                       # Per bank write bursts
system.mem_ctrls1.perBankWrBursts::13               0                       # Per bank write bursts
system.mem_ctrls1.perBankWrBursts::14               0                       # Per bank write bursts
system.mem_ctrls1.perBankWrBursts::15               0                       # Per bank write bursts
system.mem_ctrls1.numRdRetry                        0                       # Number of times read queue was full causing retry
system.mem_ctrls1.numWrRetry                        0                       # Number of times write queue was full causing retry
system.mem_ctrls1.totGap                  21151763500                       # Total gap between requests
system.mem_ctrls1.readPktSize::0                    0                       # Read request sizes (log2)
system.mem_ctrls1.readPktSize::1                    0                       # Read request sizes (log2)
system.mem_ctrls1.readPktSize::2                    0                       # Read request sizes (log2)
system.mem_ctrls1.readPktSize::3                    0                       # Read request sizes (log2)
system.mem_ctrls1.readPktSize::4                    0                       # Read request sizes (log2)
system.mem_ctrls1.readPktSize::5                    0                       # Read request sizes (log2)
system.mem_ctrls1.readPktSize::6                54124                       # Read request sizes (log2)
system.mem_ctrls1.writePktSize::0                   0                       # Write request sizes (log2)
system.mem_ctrls1.writePktSize::1                   0                       # Write request sizes (log2)
system.mem_ctrls1.writePktSize::2                   0                       # Write request sizes (log2)
system.mem_ctrls1.writePktSize::3                   0                       # Write request sizes (log2)
system.mem_ctrls1.writePktSize::4                   0                       # Write request sizes (log2)
system.mem_ctrls1.writePktSize::5                   0                       # Write request sizes (log2)
system.mem_ctrls1.writePktSize::6                   0                       # Write request sizes (log2)
system.mem_ctrls1.rdQLenPdf::0                  36560                       # What read queue length does an incoming req see
system.mem_ctrls1.rdQLenPdf::1                  12348                       # What read queue length does an incoming req see
system.mem_ctrls1.rdQLenPdf::2                   3244                       # What read queue length does an incoming req see
system.mem_ctrls1.rdQLenPdf::3                   1242                       # What read queue length does an incoming req see
system.mem_ctrls1.rdQLenPdf::4                    447                       # What read queue length does an incoming req see
system.mem_ctrls1.rdQLenPdf::5                    158                       # What read queue length does an incoming req see
system.mem_ctrls1.rdQLenPdf::6                     64                       # What read queue length does an incoming req see
system.mem_ctrls1.rdQLenPdf::7                     32                       # What read queue length does an incoming req see
system.mem_ctrls1.rdQLenPdf::8                     14                       # What read queue length does an incoming req see
system.mem_ctrls1.rdQLenPdf::9                      9                       # What read queue length does an incoming req see
system.mem_ctrls1.rdQLenPdf::10                     3                       # What read queue length does an incoming req see
system.mem_ctrls1.rdQLenPdf::11                     3                       # What read queue length does an incoming req see
system.mem_ctrls1.rdQLenPdf::12                     0                       # What read queue length does an incoming req see
system.mem_ctrls1.rdQLenPdf::13                     0                       # What read queue length does an incoming req see
system.mem_ctrls1.rdQLenPdf::14                     0                       # What read queue length does an incoming req see
system.mem_ctrls1.rdQLenPdf::15                     0                       # What read queue length does an incoming req see
system.mem_ctrls1.rdQLenPdf::16                     0                       # What read queue length does an incoming req see
system.mem_ctrls1.rdQLenPdf::17                     0                       # What read queue length does an incoming req see
system.mem_ctrls1.rdQLenPdf::18                     0                       # What read queue length does an incoming req see
system.mem_ctrls1.rdQLenPdf::19                     0                       # What read queue length does an incoming req see
system.mem_ctrls1.rdQLenPdf::20                     0                       # What read queue length does an incoming req see
system.mem_ctrls1.rdQLenPdf::21                     0                       # What read queue length does an incoming req see
system.mem_ctrls1.rdQLenPdf::22                     0                       # What read queue length does an incoming req see
system.mem_ctrls1.rdQLenPdf::23                     0                       # What read queue length does an incoming req see
system.mem_ctrls1.rdQLenPdf::24                     0                       # What read queue length does an incoming req see
system.mem_ctrls1.rdQLenPdf::25                     0                       # What read queue length does an incoming req see
system.mem_ctrls1.rdQLenPdf::26                     0                       # What read queue length does an incoming req see
system.mem_ctrls1.rdQLenPdf::27                     0                       # What read queue length does an incoming req see
system.mem_ctrls1.rdQLenPdf::28                     0                       # What read queue length does an incoming req see
system.mem_ctrls1.rdQLenPdf::29                     0                       # What read queue length does an incoming req see
system.mem_ctrls1.rdQLenPdf::30                     0                       # What read queue length does an incoming req see
system.mem_ctrls1.rdQLenPdf::31                     0                       # What read queue length does an incoming req see
system.mem_ctrls1.wrQLenPdf::0                      0                       # What write queue length does an incoming req see
system.mem_ctrls1.wrQLenPdf::1                      0                       # What write queue length does an incoming req see
system.mem_ctrls1.wrQLenPdf::2                      0                       # What write queue length does an incoming req see
system.mem_ctrls1.wrQLenPdf::3                      0                       # What write queue length does an incoming req see
system.mem_ctrls1.wrQLenPdf::4                      0                       # What write queue length does an incoming req see
system.mem_ctrls1.wrQLenPdf::5                      0                       # What write queue length does an incoming req see
system.mem_ctrls1.wrQLenPdf::6                      0                       # What write queue length does an incoming req see
system.mem_ctrls1.wrQLenPdf::7                      0                       # What write queue length does an incoming req see
system.mem_ctrls1.wrQLenPdf::8                      0                       # What write queue length does an incoming req see
system.mem_ctrls1.wrQLenPdf::9                      0                       # What write queue length does an incoming req see
system.mem_ctrls1.wrQLenPdf::10                     0                       # What write queue length does an incoming req see
system.mem_ctrls1.wrQLenPdf::11                     0                       # What write queue length does an incoming req see
system.mem_ctrls1.wrQLenPdf::12                     0                       # What write queue length does an incoming req see
system.mem_ctrls1.wrQLenPdf::13                     0                       # What write queue length does an incoming req see
system.mem_ctrls1.wrQLenPdf::14                     0                       # What write queue length does an incoming req see
system.mem_ctrls1.wrQLenPdf::15                     0                       # What write queue length does an incoming req see
system.mem_ctrls1.wrQLenPdf::16                     0                       # What write queue length does an incoming req see
system.mem_ctrls1.wrQLenPdf::17                     0                       # What write queue length does an incoming req see
system.mem_ctrls1.wrQLenPdf::18                     0                       # What write queue length does an incoming req see
system.mem_ctrls1.wrQLenPdf::19                     0                       # What write queue length does an incoming req see
system.mem_ctrls1.wrQLenPdf::20                     0                       # What write queue length does an incoming req see
system.mem_ctrls1.wrQLenPdf::21                     0                       # What write queue length does an incoming req see
system.mem_ctrls1.wrQLenPdf::22                     0                       # What write queue length does an incoming req see
system.mem_ctrls1.wrQLenPdf::23                     0                       # What write queue length does an incoming req see
system.mem_ctrls1.wrQLenPdf::24                     0                       # What write queue length does an incoming req see
system.mem_ctrls1.wrQLenPdf::25                     0                       # What write queue length does an incoming req see
system.mem_ctrls1.wrQLenPdf::26                     0                       # What write queue length does an incoming req see
system.mem_ctrls1.wrQLenPdf::27                     0                       # What write queue length does an incoming req see
system.mem_ctrls1.wrQLenPdf::28                     0                       # What write queue length does an incoming req see
system.mem_ctrls1.wrQLenPdf::29                     0                       # What write queue length does an incoming req see
system.mem_ctrls1.wrQLenPdf::30                     0                       # What write queue length does an incoming req see
system.mem_ctrls1.wrQLenPdf::31                     0                       # What write queue length does an incoming req see
system.mem_ctrls1.wrQLenPdf::32                     0                       # What write queue length does an incoming req see
system.mem_ctrls1.wrQLenPdf::33                     0                       # What write queue length does an incoming req see
system.mem_ctrls1.wrQLenPdf::34                     0                       # What write queue length does an incoming req see
system.mem_ctrls1.wrQLenPdf::35                     0                       # What write queue length does an incoming req see
system.mem_ctrls1.wrQLenPdf::36                     0                       # What write queue length does an incoming req see
system.mem_ctrls1.wrQLenPdf::37                     0                       # What write queue length does an incoming req see
system.mem_ctrls1.wrQLenPdf::38                     0                       # What write queue length does an incoming req see
system.mem_ctrls1.wrQLenPdf::39                     0                       # What write queue length does an incoming req see
system.mem_ctrls1.wrQLenPdf::40                     0                       # What write queue length does an incoming req see
system.mem_ctrls1.wrQLenPdf::41                     0                       # What write queue length does an incoming req see
system.mem_ctrls1.wrQLenPdf::42                     0                       # What write queue length does an incoming req see
system.mem_ctrls1.wrQLenPdf::43                     0                       # What write queue length does an incoming req see
system.mem_ctrls1.wrQLenPdf::44                     0                       # What write queue length does an incoming req see
system.mem_ctrls1.wrQLenPdf::45                     0                       # What write queue length does an incoming req see
system.mem_ctrls1.wrQLenPdf::46                     0                       # What write queue length does an incoming req see
system.mem_ctrls1.wrQLenPdf::47                     0                       # What write queue length does an incoming req see
system.mem_ctrls1.wrQLenPdf::48                     0                       # What write queue length does an incoming req see
system.mem_ctrls1.wrQLenPdf::49                     0                       # What write queue length does an incoming req see
system.mem_ctrls1.wrQLenPdf::50                     0                       # What write queue length does an incoming req see
system.mem_ctrls1.wrQLenPdf::51                     0                       # What write queue length does an incoming req see
system.mem_ctrls1.wrQLenPdf::52                     0                       # What write queue length does an incoming req see
system.mem_ctrls1.wrQLenPdf::53                     0                       # What write queue length does an incoming req see
system.mem_ctrls1.wrQLenPdf::54                     0                       # What write queue length does an incoming req see
system.mem_ctrls1.wrQLenPdf::55                     0                       # What write queue length does an incoming req see
system.mem_ctrls1.wrQLenPdf::56                     0                       # What write queue length does an incoming req see
system.mem_ctrls1.wrQLenPdf::57                     0                       # What write queue length does an incoming req see
system.mem_ctrls1.wrQLenPdf::58                     0                       # What write queue length does an incoming req see
system.mem_ctrls1.wrQLenPdf::59                     0                       # What write queue length does an incoming req see
system.mem_ctrls1.wrQLenPdf::60                     0                       # What write queue length does an incoming req see
system.mem_ctrls1.wrQLenPdf::61                     0                       # What write queue length does an incoming req see
system.mem_ctrls1.wrQLenPdf::62                     0                       # What write queue length does an incoming req see
system.mem_ctrls1.wrQLenPdf::63                     0                       # What write queue length does an incoming req see
system.mem_ctrls1.bytesPerActivate::samples        33118                       # Bytes accessed per row activation
system.mem_ctrls1.bytesPerActivate::mean   104.576363                       # Bytes accessed per row activation
system.mem_ctrls1.bytesPerActivate::gmean    80.173218                       # Bytes accessed per row activation
system.mem_ctrls1.bytesPerActivate::stdev   118.739979                       # Bytes accessed per row activation
system.mem_ctrls1.bytesPerActivate::0-127        27833     84.04%     84.04% # Bytes accessed per row activation
system.mem_ctrls1.bytesPerActivate::128-255         2522      7.62%     91.66% # Bytes accessed per row activation
system.mem_ctrls1.bytesPerActivate::256-383          414      1.25%     92.91% # Bytes accessed per row activation
system.mem_ctrls1.bytesPerActivate::384-511          242      0.73%     93.64% # Bytes accessed per row activation
system.mem_ctrls1.bytesPerActivate::512-639         2005      6.05%     99.69% # Bytes accessed per row activation
system.mem_ctrls1.bytesPerActivate::640-767           81      0.24%     99.94% # Bytes accessed per row activation
system.mem_ctrls1.bytesPerActivate::768-895            7      0.02%     99.96% # Bytes accessed per row activation
system.mem_ctrls1.bytesPerActivate::896-1023            3      0.01%     99.97% # Bytes accessed per row activation
system.mem_ctrls1.bytesPerActivate::1024-1151           11      0.03%    100.00% # Bytes accessed per row activation
system.mem_ctrls1.bytesPerActivate::total        33118                       # Bytes accessed per row activation
system.mem_ctrls1.totQLat                  1634161500                       # Total ticks spent queuing
system.mem_ctrls1.totMemAccLat             2648986500                       # Total ticks spent from burst creation until serviced by the DRAM
system.mem_ctrls1.totBusLat                 270620000                       # Total ticks spent in databus transfers
system.mem_ctrls1.avgQLat                    30192.92                       # Average queueing delay per DRAM burst
system.mem_ctrls1.avgBusLat                   5000.00                       # Average bus latency per DRAM burst
system.mem_ctrls1.avgMemAccLat               48942.92                       # Average memory access latency per DRAM burst
system.mem_ctrls1.avgRdBW                      163.76                       # Average DRAM read bandwidth in MiByte/s
system.mem_ctrls1.avgWrBW                        0.00                       # Average achieved write bandwidth in MiByte/s
system.mem_ctrls1.avgRdBWSys                   163.76                       # Average system read bandwidth in MiByte/s
system.mem_ctrls1.avgWrBWSys                     0.00                       # Average system write bandwidth in MiByte/s
system.mem_ctrls1.peakBW                     12800.00                       # Theoretical peak bandwidth in MiByte/s
system.mem_ctrls1.busUtil                        1.28                       # Data bus utilization in percentage
system.mem_ctrls1.busUtilRead                    1.28                       # Data bus utilization in percentage for reads
system.mem_ctrls1.busUtilWrite                   0.00                       # Data bus utilization in percentage for writes
system.mem_ctrls1.avgRdQLen                      1.26                       # Average read queue length when enqueuing
system.mem_ctrls1.avgWrQLen                      0.00                       # Average write queue length when enqueuing
system.mem_ctrls1.readRowHits                   21001                       # Number of row buffer hits during reads
system.mem_ctrls1.writeRowHits                      0                       # Number of row buffer hits during writes
system.mem_ctrls1.readRowHitRate                38.80                       # Row buffer hit rate for reads
system.mem_ctrls1.writeRowHitRate                 nan                       # Row buffer hit rate for writes
system.mem_ctrls1.avgGap                    390801.93                       # Average gap between requests
system.mem_ctrls1.pageHitRate                   38.80                       # Row buffer hit rate, read and write combined
system.mem_ctrls1_0.actEnergy               102830280                       # Energy for activate commands per rank (pJ)
system.mem_ctrls1_0.preEnergy                54640410                       # Energy for precharge commands per rank (pJ)
system.mem_ctrls1_0.readEnergy              197299620                       # Energy for read commands per rank (pJ)
system.mem_ctrls1_0.writeEnergy                     0                       # Energy for write commands per rank (pJ)
system.mem_ctrls1_0.refreshEnergy        1139542560.000000                       # Energy for refresh commands per rank (pJ)
system.mem_ctrls1_0.actBackEnergy           602938020                       # Energy for active background per rank (pJ)
system.mem_ctrls1_0.preBackEnergy            27643680                       # Energy for precharge background per rank (pJ)
system.mem_ctrls1_0.actPowerDownEnergy     5640932040                       # Energy for active power-down per rank (pJ)
system.mem_ctrls1_0.prePowerDownEnergy      210269760                       # Energy for precharge power-down per rank (pJ)
system.mem_ctrls1_0.selfRefreshEnergy      1651557420                       # Energy for self refresh per rank (pJ)
system.mem_ctrls1_0.totalEnergy            9627653790                       # Total energy per rank (pJ)
system.mem_ctrls1_0.averagePower           455.157967                       # Core power per rank (mW)
system.mem_ctrls1_0.totalIdleTime         19758376250                       # Total Idle time Per DRAM Rank
system.mem_ctrls1_0.memoryStateTime::IDLE     16256500                       # Time in different power states
system.mem_ctrls1_0.memoryStateTime::REF    482148000                       # Time in different power states
system.mem_ctrls1_0.memoryStateTime::SREF   6840070250                       # Time in different power states
system.mem_ctrls1_0.memoryStateTime::PRE_PDN    547424500                       # Time in different power states
system.mem_ctrls1_0.memoryStateTime::ACT    895431250                       # Time in different power states
system.mem_ctrls1_0.memoryStateTime::ACT_PDN  12371004000                       # Time in different power states
system.mem_ctrls1_1.actEnergy               133667940                       # Energy for activate commands per rank (pJ)
system.mem_ctrls1_1.preEnergy                71042400                       # Energy for precharge commands per rank (pJ)
system.mem_ctrls1_1.readEnergy              189145740                       # Energy for read commands per rank (pJ)
system.mem_ctrls1_1.writeEnergy                     0                       # Energy for write commands per rank (pJ)
system.mem_ctrls1_1.refreshEnergy        928106400.000000                       # Energy for refresh commands per rank (pJ)
system.mem_ctrls1_1.actBackEnergy           594062550                       # Energy for active background per rank (pJ)
system.mem_ctrls1_1.preBackEnergy            23133120                       # Energy for precharge background per rank (pJ)
system.mem_ctrls1_1.actPowerDownEnergy     4392967200                       # Energy for active power-down per rank (pJ)
system.mem_ctrls1_1.prePowerDownEnergy      228889440                       # Energy for precharge power-down per rank (pJ)
system.mem_ctrls1_1.selfRefreshEnergy      2306995320                       # Energy for self refresh per rank (pJ)
system.mem_ctrls1_1.totalEnergy            8868010110                       # Total energy per rank (pJ)
system.mem_ctrls1_1.averagePower           419.244973                       # Core power per rank (mW)
system.mem_ctrls1_1.totalIdleTime         19789183250                       # Total Idle time Per DRAM Rank
system.mem_ctrls1_1.memoryStateTime::IDLE     14937000                       # Time in different power states
system.mem_ctrls1_1.memoryStateTime::REF    392738000                       # Time in different power states
system.mem_ctrls1_1.memoryStateTime::SREF   9559560750                       # Time in different power states
system.mem_ctrls1_1.memoryStateTime::PRE_PDN    595933750                       # Time in different power states
system.mem_ctrls1_1.memoryStateTime::ACT    955112000                       # Time in different power states
system.mem_ctrls1_1.memoryStateTime::ACT_PDN   9634053000                       # Time in different power states
system.mem_ctrls2.pwrStateResidencyTicks::UNDEFINED  21152334500                       # Cumulative time (in ticks) in various power states
system.mem_ctrls2.bytes_read::ruby.dir_cntrl2      3479168                       # Number of bytes read from this memory
system.mem_ctrls2.bytes_read::total           3479168                       # Number of bytes read from this memory
system.mem_ctrls2.num_reads::ruby.dir_cntrl2        54362                       # Number of read requests responded to by this memory
system.mem_ctrls2.num_reads::total              54362                       # Number of read requests responded to by this memory
system.mem_ctrls2.bw_read::ruby.dir_cntrl2    164481514                       # Total read bandwidth from this memory (bytes/s)
system.mem_ctrls2.bw_read::total            164481514                       # Total read bandwidth from this memory (bytes/s)
system.mem_ctrls2.bw_total::ruby.dir_cntrl2    164481514                       # Total bandwidth to/from this memory (bytes/s)
system.mem_ctrls2.bw_total::total           164481514                       # Total bandwidth to/from this memory (bytes/s)
system.mem_ctrls2.readReqs                      54362                       # Number of read requests accepted
system.mem_ctrls2.avgNetLat                      0.00                       # Average network latency to DRAM controller
system.mem_ctrls2.writeReqs                         0                       # Number of write requests accepted
system.mem_ctrls2.readBursts                    54362                       # Number of DRAM read bursts, including those serviced by the write queue
system.mem_ctrls2.writeBursts                       0                       # Number of DRAM write bursts, including those merged in the write queue
system.mem_ctrls2.bytesReadDRAM               3479168                       # Total number of bytes read from DRAM
system.mem_ctrls2.bytesReadWrQ                      0                       # Total number of bytes read from write queue
system.mem_ctrls2.bytesWritten                      0                       # Total number of bytes written to DRAM
system.mem_ctrls2.bytesReadSys                3479168                       # Total read bytes from the system interface side
system.mem_ctrls2.bytesWrittenSys                   0                       # Total written bytes from the system interface side
system.mem_ctrls2.servicedByWrQ                     0                       # Number of DRAM read bursts serviced by the write queue
system.mem_ctrls2.mergedWrBursts                    0                       # Number of DRAM write bursts merged with an existing one
system.mem_ctrls2.neitherReadNorWriteReqs            0                       # Number of requests that are neither read nor write
system.mem_ctrls2.perBankRdBursts::0             3937                       # Per bank write bursts
system.mem_ctrls2.perBankRdBursts::1             3731                       # Per bank write bursts
system.mem_ctrls2.perBankRdBursts::2             3485                       # Per bank write bursts
system.mem_ctrls2.perBankRdBursts::3             3409                       # Per bank write bursts
system.mem_ctrls2.perBankRdBursts::4             3399                       # Per bank write bursts
system.mem_ctrls2.perBankRdBursts::5             3222                       # Per bank write bursts
system.mem_ctrls2.perBankRdBursts::6             3320                       # Per bank write bursts
system.mem_ctrls2.perBankRdBursts::7             3147                       # Per bank write bursts
system.mem_ctrls2.perBankRdBursts::8             2497                       # Per bank write bursts
system.mem_ctrls2.perBankRdBursts::9             2729                       # Per bank write bursts
system.mem_ctrls2.perBankRdBursts::10            2877                       # Per bank write bursts
system.mem_ctrls2.perBankRdBursts::11            3184                       # Per bank write bursts
system.mem_ctrls2.perBankRdBursts::12            3974                       # Per bank write bursts
system.mem_ctrls2.perBankRdBursts::13            3809                       # Per bank write bursts
system.mem_ctrls2.perBankRdBursts::14            3705                       # Per bank write bursts
system.mem_ctrls2.perBankRdBursts::15            3937                       # Per bank write bursts
system.mem_ctrls2.perBankWrBursts::0                0                       # Per bank write bursts
system.mem_ctrls2.perBankWrBursts::1                0                       # Per bank write bursts
system.mem_ctrls2.perBankWrBursts::2                0                       # Per bank write bursts
system.mem_ctrls2.perBankWrBursts::3                0                       # Per bank write bursts
system.mem_ctrls2.perBankWrBursts::4                0                       # Per bank write bursts
system.mem_ctrls2.perBankWrBursts::5                0                       # Per bank write bursts
system.mem_ctrls2.perBankWrBursts::6                0                       # Per bank write bursts
system.mem_ctrls2.perBankWrBursts::7                0                       # Per bank write bursts
system.mem_ctrls2.perBankWrBursts::8                0                       # Per bank write bursts
system.mem_ctrls2.perBankWrBursts::9                0                       # Per bank write bursts
system.mem_ctrls2.perBankWrBursts::10               0                       # Per bank write bursts
system.mem_ctrls2.perBankWrBursts::11               0                       # Per bank write bursts
system.mem_ctrls2.perBankWrBursts::12               0                       # Per bank write bursts
system.mem_ctrls2.perBankWrBursts::13               0                       # Per bank write bursts
system.mem_ctrls2.perBankWrBursts::14               0                       # Per bank write bursts
system.mem_ctrls2.perBankWrBursts::15               0                       # Per bank write bursts
system.mem_ctrls2.numRdRetry                        0                       # Number of times read queue was full causing retry
system.mem_ctrls2.numWrRetry                        0                       # Number of times write queue was full causing retry
system.mem_ctrls2.totGap                  21151314500                       # Total gap between requests
system.mem_ctrls2.readPktSize::0                    0                       # Read request sizes (log2)
system.mem_ctrls2.readPktSize::1                    0                       # Read request sizes (log2)
system.mem_ctrls2.readPktSize::2                    0                       # Read request sizes (log2)
system.mem_ctrls2.readPktSize::3                    0                       # Read request sizes (log2)
system.mem_ctrls2.readPktSize::4                    0                       # Read request sizes (log2)
system.mem_ctrls2.readPktSize::5                    0                       # Read request sizes (log2)
system.mem_ctrls2.readPktSize::6                54362                       # Read request sizes (log2)
system.mem_ctrls2.writePktSize::0                   0                       # Write request sizes (log2)
system.mem_ctrls2.writePktSize::1                   0                       # Write request sizes (log2)
system.mem_ctrls2.writePktSize::2                   0                       # Write request sizes (log2)
system.mem_ctrls2.writePktSize::3                   0                       # Write request sizes (log2)
system.mem_ctrls2.writePktSize::4                   0                       # Write request sizes (log2)
system.mem_ctrls2.writePktSize::5                   0                       # Write request sizes (log2)
system.mem_ctrls2.writePktSize::6                   0                       # Write request sizes (log2)
system.mem_ctrls2.rdQLenPdf::0                  36943                       # What read queue length does an incoming req see
system.mem_ctrls2.rdQLenPdf::1                  12215                       # What read queue length does an incoming req see
system.mem_ctrls2.rdQLenPdf::2                   3307                       # What read queue length does an incoming req see
system.mem_ctrls2.rdQLenPdf::3                   1180                       # What read queue length does an incoming req see
system.mem_ctrls2.rdQLenPdf::4                    432                       # What read queue length does an incoming req see
system.mem_ctrls2.rdQLenPdf::5                    160                       # What read queue length does an incoming req see
system.mem_ctrls2.rdQLenPdf::6                     65                       # What read queue length does an incoming req see
system.mem_ctrls2.rdQLenPdf::7                     32                       # What read queue length does an incoming req see
system.mem_ctrls2.rdQLenPdf::8                     15                       # What read queue length does an incoming req see
system.mem_ctrls2.rdQLenPdf::9                      9                       # What read queue length does an incoming req see
system.mem_ctrls2.rdQLenPdf::10                     3                       # What read queue length does an incoming req see
system.mem_ctrls2.rdQLenPdf::11                     1                       # What read queue length does an incoming req see
system.mem_ctrls2.rdQLenPdf::12                     0                       # What read queue length does an incoming req see
system.mem_ctrls2.rdQLenPdf::13                     0                       # What read queue length does an incoming req see
system.mem_ctrls2.rdQLenPdf::14                     0                       # What read queue length does an incoming req see
system.mem_ctrls2.rdQLenPdf::15                     0                       # What read queue length does an incoming req see
system.mem_ctrls2.rdQLenPdf::16                     0                       # What read queue length does an incoming req see
system.mem_ctrls2.rdQLenPdf::17                     0                       # What read queue length does an incoming req see
system.mem_ctrls2.rdQLenPdf::18                     0                       # What read queue length does an incoming req see
system.mem_ctrls2.rdQLenPdf::19                     0                       # What read queue length does an incoming req see
system.mem_ctrls2.rdQLenPdf::20                     0                       # What read queue length does an incoming req see
system.mem_ctrls2.rdQLenPdf::21                     0                       # What read queue length does an incoming req see
system.mem_ctrls2.rdQLenPdf::22                     0                       # What read queue length does an incoming req see
system.mem_ctrls2.rdQLenPdf::23                     0                       # What read queue length does an incoming req see
system.mem_ctrls2.rdQLenPdf::24                     0                       # What read queue length does an incoming req see
system.mem_ctrls2.rdQLenPdf::25                     0                       # What read queue length does an incoming req see
system.mem_ctrls2.rdQLenPdf::26                     0                       # What read queue length does an incoming req see
system.mem_ctrls2.rdQLenPdf::27                     0                       # What read queue length does an incoming req see
system.mem_ctrls2.rdQLenPdf::28                     0                       # What read queue length does an incoming req see
system.mem_ctrls2.rdQLenPdf::29                     0                       # What read queue length does an incoming req see
system.mem_ctrls2.rdQLenPdf::30                     0                       # What read queue length does an incoming req see
system.mem_ctrls2.rdQLenPdf::31                     0                       # What read queue length does an incoming req see
system.mem_ctrls2.wrQLenPdf::0                      0                       # What write queue length does an incoming req see
system.mem_ctrls2.wrQLenPdf::1                      0                       # What write queue length does an incoming req see
system.mem_ctrls2.wrQLenPdf::2                      0                       # What write queue length does an incoming req see
system.mem_ctrls2.wrQLenPdf::3                      0                       # What write queue length does an incoming req see
system.mem_ctrls2.wrQLenPdf::4                      0                       # What write queue length does an incoming req see
system.mem_ctrls2.wrQLenPdf::5                      0                       # What write queue length does an incoming req see
system.mem_ctrls2.wrQLenPdf::6                      0                       # What write queue length does an incoming req see
system.mem_ctrls2.wrQLenPdf::7                      0                       # What write queue length does an incoming req see
system.mem_ctrls2.wrQLenPdf::8                      0                       # What write queue length does an incoming req see
system.mem_ctrls2.wrQLenPdf::9                      0                       # What write queue length does an incoming req see
system.mem_ctrls2.wrQLenPdf::10                     0                       # What write queue length does an incoming req see
system.mem_ctrls2.wrQLenPdf::11                     0                       # What write queue length does an incoming req see
system.mem_ctrls2.wrQLenPdf::12                     0                       # What write queue length does an incoming req see
system.mem_ctrls2.wrQLenPdf::13                     0                       # What write queue length does an incoming req see
system.mem_ctrls2.wrQLenPdf::14                     0                       # What write queue length does an incoming req see
system.mem_ctrls2.wrQLenPdf::15                     0                       # What write queue length does an incoming req see
system.mem_ctrls2.wrQLenPdf::16                     0                       # What write queue length does an incoming req see
system.mem_ctrls2.wrQLenPdf::17                     0                       # What write queue length does an incoming req see
system.mem_ctrls2.wrQLenPdf::18                     0                       # What write queue length does an incoming req see
system.mem_ctrls2.wrQLenPdf::19                     0                       # What write queue length does an incoming req see
system.mem_ctrls2.wrQLenPdf::20                     0                       # What write queue length does an incoming req see
system.mem_ctrls2.wrQLenPdf::21                     0                       # What write queue length does an incoming req see
system.mem_ctrls2.wrQLenPdf::22                     0                       # What write queue length does an incoming req see
system.mem_ctrls2.wrQLenPdf::23                     0                       # What write queue length does an incoming req see
system.mem_ctrls2.wrQLenPdf::24                     0                       # What write queue length does an incoming req see
system.mem_ctrls2.wrQLenPdf::25                     0                       # What write queue length does an incoming req see
system.mem_ctrls2.wrQLenPdf::26                     0                       # What write queue length does an incoming req see
system.mem_ctrls2.wrQLenPdf::27                     0                       # What write queue length does an incoming req see
system.mem_ctrls2.wrQLenPdf::28                     0                       # What write queue length does an incoming req see
system.mem_ctrls2.wrQLenPdf::29                     0                       # What write queue length does an incoming req see
system.mem_ctrls2.wrQLenPdf::30                     0                       # What write queue length does an incoming req see
system.mem_ctrls2.wrQLenPdf::31                     0                       # What write queue length does an incoming req see
system.mem_ctrls2.wrQLenPdf::32                     0                       # What write queue length does an incoming req see
system.mem_ctrls2.wrQLenPdf::33                     0                       # What write queue length does an incoming req see
system.mem_ctrls2.wrQLenPdf::34                     0                       # What write queue length does an incoming req see
system.mem_ctrls2.wrQLenPdf::35                     0                       # What write queue length does an incoming req see
system.mem_ctrls2.wrQLenPdf::36                     0                       # What write queue length does an incoming req see
system.mem_ctrls2.wrQLenPdf::37                     0                       # What write queue length does an incoming req see
system.mem_ctrls2.wrQLenPdf::38                     0                       # What write queue length does an incoming req see
system.mem_ctrls2.wrQLenPdf::39                     0                       # What write queue length does an incoming req see
system.mem_ctrls2.wrQLenPdf::40                     0                       # What write queue length does an incoming req see
system.mem_ctrls2.wrQLenPdf::41                     0                       # What write queue length does an incoming req see
system.mem_ctrls2.wrQLenPdf::42                     0                       # What write queue length does an incoming req see
system.mem_ctrls2.wrQLenPdf::43                     0                       # What write queue length does an incoming req see
system.mem_ctrls2.wrQLenPdf::44                     0                       # What write queue length does an incoming req see
system.mem_ctrls2.wrQLenPdf::45                     0                       # What write queue length does an incoming req see
system.mem_ctrls2.wrQLenPdf::46                     0                       # What write queue length does an incoming req see
system.mem_ctrls2.wrQLenPdf::47                     0                       # What write queue length does an incoming req see
system.mem_ctrls2.wrQLenPdf::48                     0                       # What write queue length does an incoming req see
system.mem_ctrls2.wrQLenPdf::49                     0                       # What write queue length does an incoming req see
system.mem_ctrls2.wrQLenPdf::50                     0                       # What write queue length does an incoming req see
system.mem_ctrls2.wrQLenPdf::51                     0                       # What write queue length does an incoming req see
system.mem_ctrls2.wrQLenPdf::52                     0                       # What write queue length does an incoming req see
system.mem_ctrls2.wrQLenPdf::53                     0                       # What write queue length does an incoming req see
system.mem_ctrls2.wrQLenPdf::54                     0                       # What write queue length does an incoming req see
system.mem_ctrls2.wrQLenPdf::55                     0                       # What write queue length does an incoming req see
system.mem_ctrls2.wrQLenPdf::56                     0                       # What write queue length does an incoming req see
system.mem_ctrls2.wrQLenPdf::57                     0                       # What write queue length does an incoming req see
system.mem_ctrls2.wrQLenPdf::58                     0                       # What write queue length does an incoming req see
system.mem_ctrls2.wrQLenPdf::59                     0                       # What write queue length does an incoming req see
system.mem_ctrls2.wrQLenPdf::60                     0                       # What write queue length does an incoming req see
system.mem_ctrls2.wrQLenPdf::61                     0                       # What write queue length does an incoming req see
system.mem_ctrls2.wrQLenPdf::62                     0                       # What write queue length does an incoming req see
system.mem_ctrls2.wrQLenPdf::63                     0                       # What write queue length does an incoming req see
system.mem_ctrls2.bytesPerActivate::samples        33241                       # Bytes accessed per row activation
system.mem_ctrls2.bytesPerActivate::mean   104.653410                       # Bytes accessed per row activation
system.mem_ctrls2.bytesPerActivate::gmean    80.303405                       # Bytes accessed per row activation
system.mem_ctrls2.bytesPerActivate::stdev   118.665433                       # Bytes accessed per row activation
system.mem_ctrls2.bytesPerActivate::0-127        27846     83.77%     83.77% # Bytes accessed per row activation
system.mem_ctrls2.bytesPerActivate::128-255         2662      8.01%     91.78% # Bytes accessed per row activation
system.mem_ctrls2.bytesPerActivate::256-383          405      1.22%     93.00% # Bytes accessed per row activation
system.mem_ctrls2.bytesPerActivate::384-511          184      0.55%     93.55% # Bytes accessed per row activation
system.mem_ctrls2.bytesPerActivate::512-639         2059      6.19%     99.74% # Bytes accessed per row activation
system.mem_ctrls2.bytesPerActivate::640-767           60      0.18%     99.92% # Bytes accessed per row activation
system.mem_ctrls2.bytesPerActivate::768-895            8      0.02%     99.95% # Bytes accessed per row activation
system.mem_ctrls2.bytesPerActivate::896-1023            1      0.00%     99.95% # Bytes accessed per row activation
[...]
system.ruby.L1Cache_Controller.M_I.Load::total            2                      
system.ruby.L1Cache_Controller.M_I.Ifetch |           1      7.14%      7.14% |           1      7.14%     14.29% |           1      7.14%     21.43% |           1      7.14%     28.57% |           1      7.14%     35.71% |           0      0.00%     35.71% |           0      0.00%     35.71% |           1      7.14%     42.86% |           1      7.14%     50.00% |           1      7.14%     57.14% |           1      7.14%     64.29% |           1      7.14%     71.43% |           1      7.14%     78.57% |           1      7.14%     85.71% |           1      7.14%     92.86% |           1      7.14%    100.00%
system.ruby.L1Cache_Controller.M_I.Ifetch::total           14                      
system.ruby.L1Cache_Controller.M_I.WB_Ack |       12843      4.04%      4.04% |       12831      4.03%      8.07% |       12785      4.02%     12.09% |       12990      4.08%     16.18% |       12806      4.03%     20.20% |       69004     21.69%     41.90% |       68996     21.69%     63.59% |       12829      4.03%     67.62% |       12847      4.04%     71.66% |       12765      4.01%     75.67% |       13036      4.10%     79.77% |       12758      4.01%     83.78% |       12964      4.08%     87.86% |       12735      4.00%     91.86% |       12878      4.05%     95.91% |       13001      4.09%    100.00%
system.ruby.L1Cache_Controller.M_I.WB_Ack::total       318068                      
system.ruby.L2Cache_Controller.L1_GET_INSTR |        1408      6.25%      6.25% |        1419      6.30%     12.55% |        1598      7.09%     19.64% |        1306      5.80%     25.44% |        1671      7.42%     32.85% |        1381      6.13%     38.98% |        1472      6.53%     45.52% |        1375      6.10%     51.62% |        1496      6.64%     58.26% |        1182      5.25%     63.50% |        1318      5.85%     69.35% |        1341      5.95%     75.31% |        1260      5.59%     80.90% |        1338      5.94%     86.84% |        1595      7.08%     93.92% |        1371      6.08%    100.00%
system.ruby.L2Cache_Controller.L1_GET_INSTR::total        22531                      
system.ruby.L2Cache_Controller.L1_GETS   |       10133      6.15%      6.15% |        9945      6.04%     12.19% |        9836      5.97%     18.17% |       10557      6.41%     24.58% |        9960      6.05%     30.63% |        9932      6.03%     36.66% |       10143      6.16%     42.82% |       10423      6.33%     49.15% |       10395      6.31%     55.46% |       10078      6.12%     61.59% |       10226      6.21%     67.80% |       10889      6.61%     74.41% |       10732      6.52%     80.93% |       10823      6.57%     87.50% |       10604      6.44%     93.94% |        9977      6.06%    100.00%
system.ruby.L2Cache_Controller.L1_GETS::total       164653                      
system.ruby.L2Cache_Controller.L1_GETX   |       10561      6.19%      6.19% |       10746      6.30%     12.50% |       10721      6.29%     18.78% |       10626      6.23%     25.01% |       10748      6.30%     31.32% |       10656      6.25%     37.57% |       10608      6.22%     43.79% |       10774      6.32%     50.11% |       10639      6.24%     56.34% |       10658      6.25%     62.59% |       10677      6.26%     68.86% |       10582      6.21%     75.06% |       10610      6.22%     81.28% |       10551      6.19%     87.47% |       10675      6.26%     93.73% |       10689      6.27%    100.00%
system.ruby.L2Cache_Controller.L1_GETX::total       170521                      
system.ruby.L2Cache_Controller.L1_PUTX   |       19638      6.17%      6.17% |       19638      6.17%     12.35% |       19476      6.12%     18.47% |       20103      6.32%     24.79% |       19625      6.17%     30.96% |       19508      6.13%     37.10% |       19671      6.18%     43.28% |       20115      6.32%     49.60% |       19954      6.27%     55.88% |       19641      6.18%     62.05% |       19835      6.24%     68.29% |       20418      6.42%     74.71% |       20285      6.38%     81.09% |       20321      6.39%     87.47% |       20227      6.36%     93.83% |       19613      6.17%    100.00%
system.ruby.L2Cache_Controller.L1_PUTX::total       318068                      
system.ruby.L2Cache_Controller.Mem_Data  |       13622      6.27%      6.27% |       13496      6.21%     12.48% |       13412      6.17%     18.65% |       13552      6.24%     24.89% |       13384      6.16%     31.05% |       13538      6.23%     37.28% |       13594      6.26%     43.53% |       13608      6.26%     49.79% |       13734      6.32%     56.11% |       13328      6.13%     62.25% |       13538      6.23%     68.48% |       13538      6.23%     74.71% |       13706      6.31%     81.01% |       13762      6.33%     87.35% |       13818      6.36%     93.71% |       13678      6.29%    100.00%
system.ruby.L2Cache_Controller.Mem_Data::total       217308                      
system.ruby.L2Cache_Controller.WB_Data   |          14      4.12%      4.12% |          14      4.12%      8.24% |          28      8.24%     16.47% |          28      8.24%     24.71% |          28      8.24%     32.94% |          28      8.24%     41.18% |          28      8.24%     49.41% |          28      8.24%     57.65% |          25      7.35%     65.00% |          27      7.94%     72.94% |          22      6.47%     79.41% |          14      4.12%     83.53% |          14      4.12%     87.65% |          14      4.12%     91.76% |          14      4.12%     95.88% |          14      4.12%    100.00%
system.ruby.L2Cache_Controller.WB_Data::total          340                      
system.ruby.L2Cache_Controller.Unblock   |          14      4.12%      4.12% |          14      4.12%      8.24% |          28      8.24%     16.47% |          28      8.24%     24.71% |          28      8.24%     32.94% |          28      8.24%     41.18% |          28      8.24%     49.41% |          28      8.24%     57.65% |          25      7.35%     65.00% |          27      7.94%     72.94% |          22      6.47%     79.41% |          14      4.12%     83.53% |          14      4.12%     87.65% |          14      4.12%     91.76% |          14      4.12%     95.88% |          14      4.12%    100.00%
system.ruby.L2Cache_Controller.Unblock::total          340                      
system.ruby.L2Cache_Controller.Exclusive_Unblock |       20666      6.18%      6.18% |       20663      6.18%     12.36% |       20501      6.13%     18.49% |       21127      6.32%     24.80% |       20652      6.17%     30.98% |       20532      6.14%     37.12% |       20695      6.19%     43.30% |       21127      6.32%     49.62% |       20984      6.27%     55.89% |       20668      6.18%     62.07% |       20859      6.24%     68.31% |       21443      6.41%     74.72% |       21314      6.37%     81.09% |       21346      6.38%     87.48% |       21251      6.35%     93.83% |       20638      6.17%    100.00%
system.ruby.L2Cache_Controller.Exclusive_Unblock::total       334466                      
system.ruby.L2Cache_Controller.NP.L1_GET_INSTR |        1274      6.27%      6.27% |        1302      6.41%     12.68% |        1442      7.10%     19.78% |        1232      6.06%     25.84% |        1274      6.27%     32.12% |        1274      6.27%     38.39% |        1246      6.13%     44.52% |        1246      6.13%     50.65% |        1316      6.48%     57.13% |        1106      5.44%     62.58% |        1190      5.86%     68.44% |        1218      6.00%     74.43% |        1190      5.86%     80.29% |        1260      6.20%     86.49% |        1442      7.10%     93.59% |        1302      6.41%    100.00%
system.ruby.L2Cache_Controller.NP.L1_GET_INSTR::total        20314                      
system.ruby.L2Cache_Controller.NP.L1_GETS |        6692      6.31%      6.31% |        6468      6.10%     12.42% |        6216      5.86%     18.28% |        6608      6.23%     24.51% |        6370      6.01%     30.52% |        6566      6.19%     36.72% |        6636      6.26%     42.98% |        6664      6.29%     49.27% |        6748      6.37%     55.63% |        6566      6.19%     61.83% |        6678      6.30%     68.13% |        6692      6.31%     74.44% |        6874      6.49%     80.93% |        6818      6.43%     87.36% |        6692      6.31%     93.67% |        6706      6.33%    100.00%
system.ruby.L2Cache_Controller.NP.L1_GETS::total       105994                      
system.ruby.L2Cache_Controller.NP.L1_GETX |        5656      6.22%      6.22% |        5726      6.29%     12.51% |        5754      6.32%     18.83% |        5712      6.28%     25.11% |        5740      6.31%     31.42% |        5698      6.26%     37.68% |        5712      6.28%     43.95% |        5698      6.26%     50.22% |        5670      6.23%     56.45% |        5656      6.22%     62.66% |        5670      6.23%     68.89% |        5628      6.18%     75.08% |        5642      6.20%     81.28% |        5684      6.25%     87.52% |        5684      6.25%     93.77% |        5670      6.23%    100.00%
system.ruby.L2Cache_Controller.NP.L1_GETX::total        91000                      
system.ruby.L2Cache_Controller.SS.L1_GET_INSTR |         120      5.55%      5.55% |         117      5.41%     10.97% |         156      7.22%     18.19% |          74      3.42%     21.61% |         397     18.37%     39.98% |         107      4.95%     44.93% |         226     10.46%     55.39% |         115      5.32%     60.71% |         180      8.33%     69.04% |          62      2.87%     71.91% |         128      5.92%     77.83% |         123      5.69%     83.53% |          70      3.24%     86.77% |          78      3.61%     90.37% |         139      6.43%     96.81% |          69      3.19%    100.00%
system.ruby.L2Cache_Controller.SS.L1_GET_INSTR::total         2161                      
system.ruby.L2Cache_Controller.SS.L1_GETS |          14      3.80%      3.80% |          14      3.80%      7.61% |          28      7.61%     15.22% |          28      7.61%     22.83% |          28      7.61%     30.43% |          28      7.61%     38.04% |          28      7.61%     45.65% |          42     11.41%     57.07% |          25      6.79%     63.86% |          41     11.14%     75.00% |          22      5.98%     80.98% |          14      3.80%     84.78% |          14      3.80%     88.59% |          14      3.80%     92.39% |          14      3.80%     96.20% |          14      3.80%    100.00%
system.ruby.L2Cache_Controller.SS.L1_GETS::total          368                      
system.ruby.L2Cache_Controller.M.L1_GET_INSTR |          14     25.00%     25.00% |           0      0.00%     25.00% |           0      0.00%     25.00% |           0      0.00%     25.00% |           0      0.00%     25.00% |           0      0.00%     25.00% |           0      0.00%     25.00% |          14     25.00%     50.00% |           0      0.00%     50.00% |          14     25.00%     75.00% |           0      0.00%     75.00% |           0      0.00%     75.00% |           0      0.00%     75.00% |           0      0.00%     75.00% |          14     25.00%    100.00% |           0      0.00%    100.00%
system.ruby.L2Cache_Controller.M.L1_GET_INSTR::total           56                      
system.ruby.L2Cache_Controller.M.L1_GETS |        3413      5.89%      5.89% |        3449      5.95%     11.84% |        3564      6.15%     17.99% |        3893      6.72%     24.71% |        3534      6.10%     30.81% |        3310      5.71%     36.52% |        3451      5.96%     42.47% |        3689      6.37%     48.84% |        3597      6.21%     55.05% |        3444      5.94%     60.99% |        3504      6.05%     67.04% |        4169      7.19%     74.23% |        3830      6.61%     80.84% |        3977      6.86%     87.70% |        3884      6.70%     94.40% |        3243      5.60%    100.00%
system.ruby.L2Cache_Controller.M.L1_GETS::total        57951                      
system.ruby.L2Cache_Controller.M.L1_GETX |        4905      6.17%      6.17% |        5020      6.31%     12.48% |        4967      6.25%     18.73% |        4914      6.18%     24.91% |        5008      6.30%     31.20% |        4958      6.23%     37.44% |        4896      6.16%     43.60% |        5076      6.38%     49.98% |        4969      6.25%     56.23% |        5002      6.29%     62.52% |        5007      6.30%     68.81% |        4954      6.23%     75.04% |        4968      6.25%     81.29% |        4867      6.12%     87.41% |        4991      6.28%     93.69% |        5019      6.31%    100.00%
system.ruby.L2Cache_Controller.M.L1_GETX::total        79521                      
system.ruby.L2Cache_Controller.MT.L1_GETS |          14      4.12%      4.12% |          14      4.12%      8.24% |          28      8.24%     16.47% |          28      8.24%     24.71% |          28      8.24%     32.94% |          28      8.24%     41.18% |          28      8.24%     49.41% |          28      8.24%     57.65% |          25      7.35%     65.00% |          27      7.94%     72.94% |          22      6.47%     79.41% |          14      4.12%     83.53% |          14      4.12%     87.65% |          14      4.12%     91.76% |          14      4.12%     95.88% |          14      4.12%    100.00%
system.ruby.L2Cache_Controller.MT.L1_GETS::total          340                      
system.ruby.L2Cache_Controller.MT.L1_PUTX |       19638      6.17%      6.17% |       19638      6.17%     12.35% |       19476      6.12%     18.47% |       20103      6.32%     24.79% |       19625      6.17%     30.96% |       19508      6.13%     37.10% |       19671      6.18%     43.28% |       20115      6.32%     49.60% |       19954      6.27%     55.88% |       19641      6.18%     62.05% |       19835      6.24%     68.29% |       20418      6.42%     74.71% |       20285      6.38%     81.09% |       20321      6.39%     87.47% |       20227      6.36%     93.83% |       19613      6.17%    100.00%
system.ruby.L2Cache_Controller.MT.L1_PUTX::total       318068                      
system.ruby.L2Cache_Controller.ISS.Mem_Data |        6692      6.31%      6.31% |        6468      6.10%     12.42% |        6216      5.86%     18.28% |        6608      6.23%     24.51% |        6370      6.01%     30.52% |        6566      6.19%     36.72% |        6636      6.26%     42.98% |        6664      6.29%     49.27% |        6748      6.37%     55.63% |        6566      6.19%     61.83% |        6678      6.30%     68.13% |        6692      6.31%     74.44% |        6874      6.49%     80.93% |        6818      6.43%     87.36% |        6692      6.31%     93.67% |        6706      6.33%    100.00%
system.ruby.L2Cache_Controller.ISS.Mem_Data::total       105994                      
system.ruby.L2Cache_Controller.IS.Mem_Data |        1274      6.27%      6.27% |        1302      6.41%     12.68% |        1442      7.10%     19.78% |        1232      6.06%     25.84% |        1274      6.27%     32.12% |        1274      6.27%     38.39% |        1246      6.13%     44.52% |        1246      6.13%     50.65% |        1316      6.48%     57.13% |        1106      5.44%     62.58% |        1190      5.86%     68.44% |        1218      6.00%     74.43% |        1190      5.86%     80.29% |        1260      6.20%     86.49% |        1442      7.10%     93.59% |        1302      6.41%    100.00%
system.ruby.L2Cache_Controller.IS.Mem_Data::total        20314                      
system.ruby.L2Cache_Controller.IM.Mem_Data |        5656      6.22%      6.22% |        5726      6.29%     12.51% |        5754      6.32%     18.83% |        5712      6.28%     25.11% |        5740      6.31%     31.42% |        5698      6.26%     37.68% |        5712      6.28%     43.95% |        5698      6.26%     50.22% |        5670      6.23%     56.45% |        5656      6.22%     62.66% |        5670      6.23%     68.89% |        5628      6.18%     75.08% |        5642      6.20%     81.28% |        5684      6.25%     87.52% |        5684      6.25%     93.77% |        5670      6.23%    100.00%
system.ruby.L2Cache_Controller.IM.Mem_Data::total        91000                      
system.ruby.L2Cache_Controller.MT_MB.Exclusive_Unblock |       20666      6.18%      6.18% |       20663      6.18%     12.36% |       20501      6.13%     18.49% |       21127      6.32%     24.80% |       20652      6.17%     30.98% |       20532      6.14%     37.12% |       20695      6.19%     43.30% |       21127      6.32%     49.62% |       20984      6.27%     55.89% |       20668      6.18%     62.07% |       20859      6.24%     68.31% |       21443      6.41%     74.72% |       21314      6.37%     81.09% |       21346      6.38%     87.48% |       21251      6.35%     93.83% |       20638      6.17%    100.00%
system.ruby.L2Cache_Controller.MT_MB.Exclusive_Unblock::total       334466                      
system.ruby.L2Cache_Controller.MT_IIB.WB_Data |          13      3.83%      3.83% |          14      4.13%      7.96% |          28      8.26%     16.22% |          28      8.26%     24.48% |          28      8.26%     32.74% |          28      8.26%     41.00% |          28      8.26%     49.26% |          28      8.26%     57.52% |          25      7.37%     64.90% |          27      7.96%     72.86% |          22      6.49%     79.35% |          14      4.13%     83.48% |          14      4.13%     87.61% |          14      4.13%     91.74% |          14      4.13%     95.87% |          14      4.13%    100.00%
system.ruby.L2Cache_Controller.MT_IIB.WB_Data::total          339                      
system.ruby.L2Cache_Controller.MT_IIB.Unblock |           1    100.00%    100.00% |           0      0.00%    100.00% |           0      0.00%    100.00% |           0      0.00%    100.00% |           0      0.00%    100.00% |           0      0.00%    100.00% |           0      0.00%    100.00% |           0      0.00%    100.00% |           0      0.00%    100.00% |           0      0.00%    100.00% |           0      0.00%    100.00% |           0      0.00%    100.00% |           0      0.00%    100.00% |           0      0.00%    100.00% |           0      0.00%    100.00% |           0      0.00%    100.00%
system.ruby.L2Cache_Controller.MT_IIB.Unblock::total            1                      
system.ruby.L2Cache_Controller.MT_IB.WB_Data |           1    100.00%    100.00% |           0      0.00%    100.00% |           0      0.00%    100.00% |           0      0.00%    100.00% |           0      0.00%    100.00% |           0      0.00%    100.00% |           0      0.00%    100.00% |           0      0.00%    100.00% |           0      0.00%    100.00% |           0      0.00%    100.00% |           0      0.00%    100.00% |           0      0.00%    100.00% |           0      0.00%    100.00% |           0      0.00%    100.00% |           0      0.00%    100.00% |           0      0.00%    100.00%
system.ruby.L2Cache_Controller.MT_IB.WB_Data::total            1                      
system.ruby.L2Cache_Controller.MT_SB.Unblock |          13      3.83%      3.83% |          14      4.13%      7.96% |          28      8.26%     16.22% |          28      8.26%     24.48% |          28      8.26%     32.74% |          28      8.26%     41.00% |          28      8.26%     49.26% |          28      8.26%     57.52% |          25      7.37%     64.90% |          27      7.96%     72.86% |          22      6.49%     79.35% |          14      4.13%     83.48% |          14      4.13%     87.61% |          14      4.13%     91.74% |          14      4.13%     95.87% |          14      4.13%    100.00%
system.ruby.L2Cache_Controller.MT_SB.Unblock::total          339                      

---------- End Simulation Statistics   ----------
