
---------- Begin Simulation Statistics ----------
sim_seconds                                  0.015959                       # Number of seconds simulated
sim_ticks                                 15958840000                       # Number of ticks simulated
final_tick                                15958840000                       # Number of ticks from beginning of simulation (restored from checkpoints and never reset)
sim_freq                                 1000000000000                       # Frequency of simulated ticks
host_inst_rate                                  56708                       # Simulator instruction rate (inst/s)
host_op_rate                                    98394                       # Simulator op (including micro ops) rate (op/s)
host_tick_rate                               19672272                       # Simulator tick rate (ticks/s)
host_mem_usage                                2042184                       # Number of bytes of host memory used
host_seconds                                   811.24                       # Real time elapsed on the host
sim_insts                                    46003606                       # Number of instructions simulated
sim_ops                                      79820475                       # Number of ops (including micro ops) simulated
system.voltage_domain.voltage                       1                       # Voltage in Volts
system.clk_domain.clock                          1000                       # Clock period in ticks
system.mem_ctrls0.pwrStateResidencyTicks::UNDEFINED  15958840000                       # Cumulative time (in ticks) in various power states
system.mem_ctrls0.bytes_read::ruby.dir_cntrl0     10267008                       # Number of bytes read from this memory
system.mem_ctrls0.bytes_read::total          10267008                       # Number of bytes read from this memory
system.mem_ctrls0.bytes_written::ruby.dir_cntrl0      1103680                       # Number of bytes written to this memory
system.mem_ctrls0.bytes_written::total        1103680                       # Number of bytes written to this memory
system.mem_ctrls0.num_reads::ruby.dir_cntrl0       160422                       # Number of read requests responded to by this memory
system.mem_ctrls0.num_reads::total             160422                       # Number of read requests responded to by this memory
system.mem_ctrls0.num_writes::ruby.dir_cntrl0        17245                       # Number of write requests responded to by this memory
system.mem_ctrls0.num_writes::total             17245                       # Number of write requests responded to by this memory
system.mem_ctrls0.bw_read::ruby.dir_cntrl0    643343000                       # Total read bandwidth from this memory (bytes/s)
system.mem_ctrls0.bw_read::total            643343000                       # Total read bandwidth from this memory (bytes/s)
system.mem_ctrls0.bw_write::ruby.dir_cntrl0     69157909                       # Write bandwidth from this memory (bytes/s)
system.mem_ctrls0.bw_write::total            69157909                       # Write bandwidth from this memory (bytes/s)
system.mem_ctrls0.bw_total::ruby.dir_cntrl0    712500909                       # Total bandwidth to/from this memory (bytes/s)
system.mem_ctrls0.bw_total::total           712500909                       # Total bandwidth to/from this memory (bytes/s)
system.mem_ctrls0.readReqs                     160422                       # Number of read requests accepted
system.mem_ctrls0.avgNetLat                      0.00                       # Average network latency to DRAM controller
system.mem_ctrls0.writeReqs                     17245                       # Number of write requests accepted
system.mem_ctrls0.readBursts                   160422                       # Number of DRAM read bursts, including those serviced by the write queue
system.mem_ctrls0.writeBursts                   17245                       # Number of DRAM write bursts, including those merged in the write queue
system.mem_ctrls0.bytesReadDRAM              10266752                       # Total number of bytes read from DRAM
system.mem_ctrls0.bytesReadWrQ                    256                       # Total number of bytes read from write queue
system.mem_ctrls0.bytesWritten                1102272                       # Total number of bytes written to DRAM
system.mem_ctrls0.bytesReadSys               10267008                       # Total read bytes from the system interface side
system.mem_ctrls0.bytesWrittenSys             1103680                       # Total written bytes from the system interface side
system.mem_ctrls0.servicedByWrQ                     4                       # Number of DRAM read bursts serviced by the write queue
system.mem_ctrls0.mergedWrBursts                    0                       # Number of DRAM write bursts merged with an existing one
system.mem_ctrls0.neitherReadNorWriteReqs            0                       # Number of requests that are neither read nor write
system.mem_ctrls0.perBankRdBursts::0            10026                       # Per bank write bursts
system.mem_ctrls0.perBankRdBursts::1             9594                       # Per bank write bursts
system.mem_ctrls0.perBankRdBursts::2             9595                       # Per bank write bursts
system.mem_ctrls0.perBankRdBursts::3             9795                       # Per bank write bursts
system.mem_ctrls0.perBankRdBursts::4             9785                       # Per bank write bursts
system.mem_ctrls0.perBankRdBursts::5             9454                       # Per bank write bursts
system.mem_ctrls0.perBankRdBursts::6             9641                       # Per bank write bursts
system.mem_ctrls0.perBankRdBursts::7             9820                       # Per bank write bursts
system.mem_ctrls0.perBankRdBursts::8            10134                       # Per bank write bursts
system.mem_ctrls0.perBankRdBursts::9            10203                       # Per bank write bursts
system.mem_ctrls0.perBankRdBursts::10           10782                       # Per bank write bursts
system.mem_ctrls0.perBankRdBursts::11           10418                       # Per bank write bursts
system.mem_ctrls0.perBankRdBursts::12           10476                       # Per bank write bursts
system.mem_ctrls0.perBankRdBursts::13           10587                       # Per bank write bursts
system.mem_ctrls0.perBankRdBursts::14           10200                       # Per bank write bursts
system.mem_ctrls0.perBankRdBursts::15            9908                       # Per bank write bursts
system.mem_ctrls0.perBankWrBursts::0             1165                       # Per bank write bursts
system.mem_ctrls0.perBankWrBursts::1              963                       # Per bank write bursts
system.mem_ctrls0.perBankWrBursts::2              978                       # Per bank write bursts
system.mem_ctrls0.perBankWrBursts::3             1006                       # Per bank write bursts
system.mem_ctrls0.perBankWrBursts::4             1073                       # Per bank write bursts
system.mem_ctrls0.perBankWrBursts::5              887                       # Per bank write bursts
system.mem_ctrls0.perBankWrBursts::6              917                       # Per bank write bursts
system.mem_ctrls0.perBankWrBursts::7             1013                       # Per bank write bursts
system.mem_ctrls0.perBankWrBursts::8             1068                       # Per bank write bursts
system.mem_ctrls0.perBankWrBursts::9             1105                       # Per bank write bursts
system.mem_ctrls0.perBankWrBursts::10            1287                       # Per bank write bursts
system.mem_ctrls0.perBankWrBursts::11            1184                       # Per bank write bursts
system.mem_ctrls0.perBankWrBursts::12            1171                       # Per bank write bursts
system.mem_ctrls0.perBankWrBursts::13            1156                       # Per bank write bursts
system.mem_ctrls0.perBankWrBursts::14            1165                       # Per bank write bursts
system.mem_ctrls0.perBankWrBursts::15            1085                       # Per bank write bursts
system.mem_ctrls0.numRdRetry                        0                       # Number of times read queue was full causing retry
system.mem_ctrls0.numWrRetry                        0                       # Number of times write queue was full causing retry
system.mem_ctrls0.totGap                  15957691000                       # Total gap between requests
system.mem_ctrls0.readPktSize::0                    0                       # Read request sizes (log2)
system.mem_ctrls0.readPktSize::1                    0                       # Read request sizes (log2)
system.mem_ctrls0.readPktSize::2                    0                       # Read request sizes (log2)
system.mem_ctrls0.readPktSize::3                    0                       # Read request sizes (log2)
system.mem_ctrls0.readPktSize::4                    0                       # Read request sizes (log2)
system.mem_ctrls0.readPktSize::5                    0                       # Read request sizes (log2)
system.mem_ctrls0.readPktSize::6               160422                       # Read request sizes (log2)
system.mem_ctrls0.writePktSize::0                   0                       # Write request sizes (log2)
system.mem_ctrls0.writePktSize::1                   0                       # Write request sizes (log2)
system.mem_ctrls0.writePktSize::2                   0                       # Write request sizes (log2)
system.mem_ctrls0.writePktSize::3                   0                       # Write request sizes (log2)
system.mem_ctrls0.writePktSize::4                   0                       # Write request sizes (log2)
system.mem_ctrls0.writePktSize::5                   0                       # Write request sizes (log2)
system.mem_ctrls0.writePktSize::6               17245                       # Write request sizes (log2)
system.mem_ctrls0.rdQLenPdf::0                  78226                       # What read queue length does an incoming req see
system.mem_ctrls0.rdQLenPdf::1                  43435                       # What read queue length does an incoming req see
system.mem_ctrls0.rdQLenPdf::2                  22343                       # What read queue length does an incoming req see
system.mem_ctrls0.rdQLenPdf::3                  10255                       # What read queue length does an incoming req see
system.mem_ctrls0.rdQLenPdf::4                   4110                       # What read queue length does an incoming req see
system.mem_ctrls0.rdQLenPdf::5                   1395                       # What read queue length does an incoming req see
system.mem_ctrls0.rdQLenPdf::6                    473                       # What read queue length does an incoming req see
system.mem_ctrls0.rdQLenPdf::7                    132                       # What read queue length does an incoming req see
system.mem_ctrls0.rdQLenPdf::8                     38                       # What read queue length does an incoming req see
system.mem_ctrls0.rdQLenPdf::9                      8                       # What read queue length does an incoming req see
system.mem_ctrls0.rdQLenPdf::10                     3                       # What read queue length does an incoming req see
system.mem_ctrls0.rdQLenPdf::11                     0                       # What read queue length does an incoming req see
system.mem_ctrls0.rdQLenPdf::12                     0                       # What read queue length does an incoming req see
system.mem_ctrls0.rdQLenPdf::13                     0                       # What read queue length does an incoming req see
system.mem_ctrls0.rdQLenPdf::14                     0                       # What read queue length does an incoming req see
system.mem_ctrls0.rdQLenPdf::15                     0                       # What read queue length does an incoming req see
system.mem_ctrls0.rdQLenPdf::16                     0                       # What read queue length does an incoming req see
system.mem_ctrls0.rdQLenPdf::17                     0                       # What read queue length does an incoming req see
system.mem_ctrls0.rdQLenPdf::18                     0                       # What read queue length does an incoming req see
system.mem_ctrls0.rdQLenPdf::19                     0                       # What read queue length does an incoming req see
system.mem_ctrls0.rdQLenPdf::20                     0                       # What read queue length does an incoming req see
system.mem_ctrls0.rdQLenPdf::21                     0                       # What read queue length does an incoming req see
system.mem_ctrls0.rdQLenPdf::22                     0                       # What read queue length does an incoming req see
system.mem_ctrls0.rdQLenPdf::23                     0                       # What read queue length does an incoming req see
system.mem_ctrls0.rdQLenPdf::24                     0                       # What read queue length does an incoming req see
system.mem_ctrls0.rdQLenPdf::25                     0                       # What read queue length does an incoming req see
system.mem_ctrls0.rdQLenPdf::26                     0                       # What read queue length does an incoming req see
system.mem_ctrls0.rdQLenPdf::27                     0                       # What read queue length does an incoming req see
system.mem_ctrls0.rdQLenPdf::28                     0                       # What read queue length does an incoming req see
system.mem_ctrls0.rdQLenPdf::29                     0                       # What read queue length does an incoming req see
system.mem_ctrls0.rdQLenPdf::30                     0                       # What read queue length does an incoming req see
system.mem_ctrls0.rdQLenPdf::31                     0                       # What read queue length does an incoming req see
system.mem_ctrls0.wrQLenPdf::0                      1                       # What write queue length does an incoming req see
system.mem_ctrls0.wrQLenPdf::1                      1                       # What write queue length does an incoming req see
system.mem_ctrls0.wrQLenPdf::2                      1                       # What write queue length does an incoming req see
system.mem_ctrls0.wrQLenPdf::3                      1                       # What write queue length does an incoming req see
system.mem_ctrls0.wrQLenPdf::4                      1                       # What write queue length does an incoming req see
system.mem_ctrls0.wrQLenPdf::5                      1                       # What write queue length does an incoming req see
system.mem_ctrls0.wrQLenPdf::6                      1                       # What write queue length does an incoming req see
system.mem_ctrls0.wrQLenPdf::7                      1                       # What write queue length does an incoming req see
system.mem_ctrls0.wrQLenPdf::8                      1                       # What write queue length does an incoming req see
system.mem_ctrls0.wrQLenPdf::9                      1                       # What write queue length does an incoming req see
system.mem_ctrls0.wrQLenPdf::10                     1                       # What write queue length does an incoming req see
system.mem_ctrls0.wrQLenPdf::11                     1                       # What write queue length does an incoming req see
system.mem_ctrls0.wrQLenPdf::12                     1                       # What write queue length does an incoming req see
system.mem_ctrls0.wrQLenPdf::13                     1                       # What write queue length does an incoming req see
system.mem_ctrls0.wrQLenPdf::14                     1                       # What write queue length does an incoming req see
system.mem_ctrls0.wrQLenPdf::15                   272                       # What write queue length does an incoming req see
system.mem_ctrls0.wrQLenPdf::16                   325                       # What write queue length does an incoming req see
system.mem_ctrls0.wrQLenPdf::17                   699                       # What write queue length does an incoming req see
system.mem_ctrls0.wrQLenPdf::18                   959                       # What write queue length does an incoming req see
system.mem_ctrls0.wrQLenPdf::19                  1077                       # What write queue length does an incoming req see
system.mem_ctrls0.wrQLenPdf::20                  1086                       # What write queue length does an incoming req see
system.mem_ctrls0.wrQLenPdf::21                  1080                       # What write queue length does an incoming req see
system.mem_ctrls0.wrQLenPdf::22                  1075                       # What write queue length does an incoming req see
system.mem_ctrls0.wrQLenPdf::23                  1068                       # What write queue length does an incoming req see
system.mem_ctrls0.wrQLenPdf::24                  1065                       # What write queue length does an incoming req see
system.mem_ctrls0.wrQLenPdf::25                  1051                       # What write queue length does an incoming req see
system.mem_ctrls0.wrQLenPdf::26                  1067                       # What write queue length does an incoming req see
system.mem_ctrls0.wrQLenPdf::27                  1069                       # What write queue length does an incoming req see
system.mem_ctrls0.wrQLenPdf::28                  1056                       # What write queue length does an incoming req see
system.mem_ctrls0.wrQLenPdf::29                  1060                       # What write queue length does an incoming req see
system.mem_ctrls0.wrQLenPdf::30                  1056                       # What write queue length does an incoming req see
system.mem_ctrls0.wrQLenPdf::31                  1062                       # What write queue length does an incoming req see
system.mem_ctrls0.wrQLenPdf::32                  1061                       # What write queue length does an incoming req see
system.mem_ctrls0.wrQLenPdf::33                    37                       # What write queue length does an incoming req see
system.mem_ctrls0.wrQLenPdf::34                     5                       # What write queue length does an incoming req see
system.mem_ctrls0.wrQLenPdf::35                     0                       # What write queue length does an incoming req see
system.mem_ctrls0.wrQLenPdf::36                     0                       # What write queue length does an incoming req see
system.mem_ctrls0.wrQLenPdf::37                     0                       # What write queue length does an incoming req see
system.mem_ctrls0.wrQLenPdf::38                     0                       # What write queue length does an incoming req see
system.mem_ctrls0.wrQLenPdf::39                     0                       # What write queue length does an incoming req see
system.mem_ctrls0.wrQLenPdf::40                     0                       # What write queue length does an incoming req see
system.mem_ctrls0.wrQLenPdf::41                     0                       # What write queue length does an incoming req see
system.mem_ctrls0.wrQLenPdf::42                     0                       # What write queue length does an incoming req see
system.mem_ctrls0.wrQLenPdf::43                     0                       # What write queue length does an incoming req see
system.mem_ctrls0.wrQLenPdf::44                     0                       # What write queue length does an incoming req see
system.mem_ctrls0.wrQLenPdf::45                     0                       # What write queue length does an incoming req see
system.mem_ctrls0.wrQLenPdf::46                     0                       # What write queue length does an incoming req see
system.mem_ctrls0.wrQLenPdf::47                     0                       # What write queue length does an incoming req see
system.mem_ctrls0.wrQLenPdf::48                     0                       # What write queue length does an incoming req see
system.mem_ctrls0.wrQLenPdf::49                     0                       # What write queue length does an incoming req see
system.mem_ctrls0.wrQLenPdf::50                     0                       # What write queue length does an incoming req see
system.mem_ctrls0.wrQLenPdf::51                     0                       # What write queue length does an incoming req see
system.mem_ctrls0.wrQLenPdf::52                     0                       # What write queue length does an incoming req see
system.mem_ctrls0.wrQLenPdf::53                     0                       # What write queue length does an incoming req see
system.mem_ctrls0.wrQLenPdf::54                     0                       # What write queue length does an incoming req see
system.mem_ctrls0.wrQLenPdf::55                     0                       # What write queue length does an incoming req see
system.mem_ctrls0.wrQLenPdf::56                     0                       # What write queue length does an incoming req see
system.mem_ctrls0.wrQLenPdf::57                     0                       # What write queue length does an incoming req see
system.mem_ctrls0.wrQLenPdf::58                     0                       # What write queue length does an incoming req see
system.mem_ctrls0.wrQLenPdf::59                     0                       # What write queue length does an incoming req see
system.mem_ctrls0.wrQLenPdf::60                     0                       # What write queue length does an incoming req see
system.mem_ctrls0.wrQLenPdf::61                     0                       # What write queue length does an incoming req see
system.mem_ctrls0.wrQLenPdf::62                     0                       # What write queue length does an incoming req see
system.mem_ctrls0.wrQLenPdf::63                     0                       # What write queue length does an incoming req see
system.mem_ctrls0.bytesPerActivate::samples       105224                       # Bytes accessed per row activation
system.mem_ctrls0.bytesPerActivate::mean   108.041055                       # Bytes accessed per row activation
system.mem_ctrls0.bytesPerActivate::gmean    85.458107                       # Bytes accessed per row activation
system.mem_ctrls0.bytesPerActivate::stdev   118.068402                       # Bytes accessed per row activation
system.mem_ctrls0.bytesPerActivate::0-127        76792     72.98%     72.98% # Bytes accessed per row activation
system.mem_ctrls0.bytesPerActivate::128-255        19999     19.01%     91.99% # Bytes accessed per row activation
system.mem_ctrls0.bytesPerActivate::256-383         3642      3.46%     95.45% # Bytes accessed per row activation
system.mem_ctrls0.bytesPerActivate::384-511         1833      1.74%     97.19% # Bytes accessed per row activation
system.mem_ctrls0.bytesPerActivate::512-639         1194      1.13%     98.32% # Bytes accessed per row activation
system.mem_ctrls0.bytesPerActivate::640-767          990      0.94%     99.26% # Bytes accessed per row activation
system.mem_ctrls0.bytesPerActivate::768-895          272      0.26%     99.52% # Bytes accessed per row activation
system.mem_ctrls0.bytesPerActivate::896-1023          222      0.21%     99.73% # Bytes accessed per row activation
system.mem_ctrls0.bytesPerActivate::1024-1151          280      0.27%    100.00% # Bytes accessed per row activation
system.mem_ctrls0.bytesPerActivate::total       105224                       # Bytes accessed per row activation
system.mem_ctrls0.rdPerTurnAround::samples         1037                       # Reads before turning the bus around for writes
system.mem_ctrls0.rdPerTurnAround::mean    154.681774                       # Reads before turning the bus around for writes
system.mem_ctrls0.rdPerTurnAround::gmean    54.401147                       # Reads before turning the bus around for writes
system.mem_ctrls0.rdPerTurnAround::stdev  2124.679649                       # Reads before turning the bus around for writes
system.mem_ctrls0.rdPerTurnAround::0-4095         1036     99.90%     99.90% # Reads before turning the bus around for writes
system.mem_ctrls0.rdPerTurnAround::65536-69631            1      0.10%    100.00% # Reads before turning the bus around for writes
system.mem_ctrls0.rdPerTurnAround::total         1037                       # Reads before turning the bus around for writes
system.mem_ctrls0.wrPerTurnAround::samples         1037                       # Writes before turning the bus around for reads
system.mem_ctrls0.wrPerTurnAround::mean     16.608486                       # Writes before turning the bus around for reads
system.mem_ctrls0.wrPerTurnAround::gmean    16.583614                       # Writes before turning the bus around for reads
system.mem_ctrls0.wrPerTurnAround::stdev     0.925322                       # Writes before turning the bus around for reads
system.mem_ctrls0.wrPerTurnAround::16             709     68.37%     68.37% # Writes before turning the bus around for reads
system.mem_ctrls0.wrPerTurnAround::17              40      3.86%     72.23% # Writes before turning the bus around for reads
system.mem_ctrls0.wrPerTurnAround::18             275     26.52%     98.75% # Writes before turning the bus around for reads
system.mem_ctrls0.wrPerTurnAround::19              11      1.06%     99.81% # Writes before turning the bus around for reads
system.mem_ctrls0.wrPerTurnAround::20               2      0.19%    100.00% # Writes before turning the bus around for reads
system.mem_ctrls0.wrPerTurnAround::total         1037                       # Writes before turning the bus around for reads
system.mem_ctrls0.totQLat                  4756235750                       # Total ticks spent queuing
system.mem_ctrls0.totMemAccLat             7764073250                       # Total ticks spent from burst creation until serviced by the DRAM
system.mem_ctrls0.totBusLat                 802090000                       # Total ticks spent in databus transfers
system.mem_ctrls0.avgQLat                    29649.02                       # Average queueing delay per DRAM burst
system.mem_ctrls0.avgBusLat                   5000.00                       # Average bus latency per DRAM burst
system.mem_ctrls0.avgMemAccLat               48399.02                       # Average memory access latency per DRAM burst
system.mem_ctrls0.avgRdBW                      643.33                       # Average DRAM read bandwidth in MiByte/s
system.mem_ctrls0.avgWrBW                       69.07                       # Average achieved write bandwidth in MiByte/s
system.mem_ctrls0.avgRdBWSys                   643.34                       # Average system read bandwidth in MiByte/s
system.mem_ctrls0.avgWrBWSys                    69.16                       # Average system write bandwidth in MiByte/s
system.mem_ctrls0.peakBW                     12800.00                       # Theoretical peak bandwidth in MiByte/s
system.mem_ctrls0.busUtil                        5.57                       # Data bus utilization in percentage
system.mem_ctrls0.busUtilRead                    5.03                       # Data bus utilization in percentage for reads
system.mem_ctrls0.busUtilWrite                   0.54                       # Data bus utilization in percentage for writes
system.mem_ctrls0.avgRdQLen                      1.56                       # Average read queue length when enqueuing
system.mem_ctrls0.avgWrQLen                     12.92                       # Average write queue length when enqueuing
system.mem_ctrls0.readRowHits                   68784                       # Number of row buffer hits during reads
system.mem_ctrls0.writeRowHits                   3630                       # Number of row buffer hits during writes
system.mem_ctrls0.readRowHitRate                42.88                       # Row buffer hit rate for reads
system.mem_ctrls0.writeRowHitRate               21.05                       # Row buffer hit rate for writes
system.mem_ctrls0.avgGap                     89817.98                       # Average gap between requests
system.mem_ctrls0.pageHitRate                   40.76                       # Row buffer hit rate, read and write combined
system.mem_ctrls0_0.actEnergy               359691780                       # Energy for activate commands per rank (pJ)
system.mem_ctrls0_0.preEnergy               191169330                       # Energy for precharge commands per rank (pJ)
system.mem_ctrls0_0.readEnergy              554849400                       # Energy for read commands per rank (pJ)
system.mem_ctrls0_0.writeEnergy              41770440                       # Energy for write commands per rank (pJ)
system.mem_ctrls0_0.refreshEnergy        1244646000.000000                       # Energy for refresh commands per rank (pJ)
system.mem_ctrls0_0.actBackEnergy          1496080710                       # Energy for active background per rank (pJ)
system.mem_ctrls0_0.preBackEnergy            32780160                       # Energy for precharge background per rank (pJ)
system.mem_ctrls0_0.actPowerDownEnergy     5195955840                       # Energy for active power-down per rank (pJ)
system.mem_ctrls0_0.prePowerDownEnergy      309523680                       # Energy for precharge power-down per rank (pJ)
system.mem_ctrls0_0.selfRefreshEnergy       109636740                       # Energy for self refresh per rank (pJ)
system.mem_ctrls0_0.totalEnergy            9536426730                       # Total energy per rank (pJ)
system.mem_ctrls0_0.averagePower           597.563904                       # Core power per rank (mW)
system.mem_ctrls0_0.totalIdleTime         12590598750                       # Total Idle time Per DRAM Rank
system.mem_ctrls0_0.memoryStateTime::IDLE     18231250                       # Time in different power states
system.mem_ctrls0_0.memoryStateTime::REF    526752000                       # Time in different power states
system.mem_ctrls0_0.memoryStateTime::SREF    391186250                       # Time in different power states
system.mem_ctrls0_0.memoryStateTime::PRE_PDN    806132250                       # Time in different power states
system.mem_ctrls0_0.memoryStateTime::ACT   2822228750                       # Time in different power states
system.mem_ctrls0_0.memoryStateTime::ACT_PDN  11394309500                       # Time in different power states
system.mem_ctrls0_1.actEnergy               391629000                       # Energy for activate commands per rank (pJ)
system.mem_ctrls0_1.preEnergy               208155750                       # Energy for precharge commands per rank (pJ)
system.mem_ctrls0_1.readEnergy              590535120                       # Energy for read commands per rank (pJ)
system.mem_ctrls0_1.writeEnergy              48133620                       # Energy for write commands per rank (pJ)
system.mem_ctrls0_1.refreshEnergy        1270460880.000000                       # Energy for refresh commands per rank (pJ)
system.mem_ctrls0_1.actBackEnergy          1579561770                       # Energy for active background per rank (pJ)
system.mem_ctrls0_1.preBackEnergy            33884160                       # Energy for precharge background per rank (pJ)
system.mem_ctrls0_1.actPowerDownEnergy     5275177290                       # Energy for active power-down per rank (pJ)
system.mem_ctrls0_1.prePowerDownEnergy      276410400                       # Energy for precharge power-down per rank (pJ)
system.mem_ctrls0_1.selfRefreshEnergy        47992440                       # Energy for self refresh per rank (pJ)
system.mem_ctrls0_1.totalEnergy            9722499660                       # Total energy per rank (pJ)
system.mem_ctrls0_1.averagePower           609.223408                       # Core power per rank (mW)
system.mem_ctrls0_1.totalIdleTime         12404663250                       # Total Idle time Per DRAM Rank
system.mem_ctrls0_1.memoryStateTime::IDLE     20379000                       # Time in different power states
system.mem_ctrls0_1.memoryStateTime::REF    537714000                       # Time in different power states
system.mem_ctrls0_1.memoryStateTime::SREF    117216000                       # Time in different power states
system.mem_ctrls0_1.memoryStateTime::PRE_PDN    719627500                       # Time in different power states
system.mem_ctrls0_1.memoryStateTime::ACT   2995159500                       # Time in different power states
system.mem_ctrls0_1.memoryStateTime::ACT_PDN  11568744000                       # Time in different power states
system.mem_ctrls1.pwrStateResidencyTicks::UNDEFINED  15958840000                       # Cumulative time (in ticks) in various power states
system.mem_ctrls1.bytes_read::ruby.dir_cntrl1     10239616                       # Number of bytes read from this memory
system.mem_ctrls1.bytes_read::total          10239616                       # Number of bytes read from this memory
system.mem_ctrls1.bytes_written::ruby.dir_cntrl1      1096192                       # Number of bytes written to this memory
system.mem_ctrls1.bytes_written::total        1096192                       # Number of bytes written to this memory
system.mem_ctrls1.num_reads::ruby.dir_cntrl1       159994                       # Number of read requests responded to by this memory
system.mem_ctrls1.num_reads::total             159994                       # Number of read requests responded to by this memory
system.mem_ctrls1.num_writes::ruby.dir_cntrl1        17128                       # Number of write requests responded to by this memory
system.mem_ctrls1.num_writes::total             17128                       # Number of write requests responded to by this memory
system.mem_ctrls1.bw_read::ruby.dir_cntrl1    641626584                       # Total read bandwidth from this memory (bytes/s)
system.mem_ctrls1.bw_read::total            641626584                       # Total read bandwidth from this memory (bytes/s)
system.mem_ctrls1.bw_write::ruby.dir_cntrl1     68688702                       # Write bandwidth from this memory (bytes/s)
system.mem_ctrls1.bw_write::total            68688702                       # Write bandwidth from this memory (bytes/s)
system.mem_ctrls1.bw_total::ruby.dir_cntrl1    710315286                       # Total bandwidth to/from this memory (bytes/s)
system.mem_ctrls1.bw_total::total           710315286                       # Total bandwidth to/from this memory (bytes/s)
system.mem_ctrls1.readReqs                     159994                       # Number of read requests accepted
system.mem_ctrls1.avgNetLat                      0.00                       # Average network latency to DRAM controller
system.mem_ctrls1.writeReqs                     17128                       # Number of write requests accepted
system.mem_ctrls1.readBursts                   159994                       # Number of DRAM read bursts, including those serviced by the write queue
system.mem_ctrls1.writeBursts                   17128                       # Number of DRAM write bursts, including those merged in the write queue
system.mem_ctrls1.bytesReadDRAM              10239232                       # Total number of bytes read from DRAM
system.mem_ctrls1.bytesReadWrQ                    384                       # Total number of bytes read from write queue
system.mem_ctrls1.bytesWritten                1094976                       # Total number of bytes written to DRAM
system.mem_ctrls1.bytesReadSys               10239616                       # Total read bytes from the system interface side
system.mem_ctrls1.bytesWrittenSys             1096192                       # Total written bytes from the system interface side
system.mem_ctrls1.servicedByWrQ                     6                       # Number of DRAM read bursts serviced by the write queue
system.mem_ctrls1.mergedWrBursts                    0                       # Number of DRAM write bursts merged with an existing one
system.mem_ctrls1.neitherReadNorWriteReqs            0                       # Number of requests that are neither read nor write
system.mem_ctrls1.perBankRdBursts::0             9989                       # Per bank write bursts
system.mem_ctrls1.perBankRdBursts::1             9497                       # Per bank write bursts
system.mem_ctrls1.perBankRdBursts::2             9580                       # Per bank write bursts
system.mem_ctrls1.perBankRdBursts::3             9791                       # Per bank write bursts
system.mem_ctrls1.perBankRdBursts::4             9744                       # Per bank write bursts
system.mem_ctrls1.perBankRdBursts::5             9488                       # Per bank write bursts
system.mem_ctrls1.perBankRdBursts::6             9632                       # Per bank write bursts
system.mem_ctrls1.perBankRdBursts::7             9771                       # Per bank write bursts
system.mem_ctrls1.perBankRdBursts::8            10130                       # Per bank write bursts
system.mem_ctrls1.perBankRdBursts::9            10153                       # Per bank write bursts
system.mem_ctrls1.perBankRdBursts::10           10781                       # Per bank write bursts
system.mem_ctrls1.perBankRdBursts::11           10369                       # Per bank write bursts
system.mem_ctrls1.perBankRdBursts::12           10438                       # Per bank write bursts
system.mem_ctrls1.perBankRdBursts::13           10552                       # Per bank write bursts
system.mem_ctrls1.perBankRdBursts::14           10195                       # Per bank write bursts
system.mem_ctrls1.perBankRdBursts::15            9878                       # Per bank write bursts
system.mem_ctrls1.perBankWrBursts::0             1172                       # Per bank write bursts
system.mem_ctrls1.perBankWrBursts::1              909                       # Per bank write bursts
system.mem_ctrls1.perBankWrBursts::2             1001                       # Per bank write bursts
system.mem_ctrls1.perBankWrBursts::3             1032                       # Per bank write bursts
system.mem_ctrls1.perBankWrBursts::4             1030                       # Per bank write bursts
system.mem_ctrls1.perBankWrBursts::5              926                       # Per bank write bursts
system.mem_ctrls1.perBankWrBursts::6              908                       # Per bank write bursts
system.mem_ctrls1.perBankWrBursts::7              983                       # Per bank write bursts
system.mem_ctrls1.perBankWrBursts::8             1072                       # Per bank write bursts
system.mem_ctrls1.perBankWrBursts::9             1102                       # Per bank write bursts
system.mem_ctrls1.perBankWrBursts::10            1272                       # Per bank write bursts
system.mem_ctrls1.perBankWrBursts::11            1156                       # Per bank write bursts
system.mem_ctrls1.perBankWrBursts::12            1150                       # Per bank write bursts
system.mem_ctrls1.perBankWrBursts::13            1152                       # Per bank write bursts
system.mem_ctrls1.perBankWrBursts::14            1150                       # Per bank write bursts
system.mem_ctrls1.perBankWrBursts::15            1094                       # Per bank write bursts
system.mem_ctrls1.numRdRetry                        0                       # Number of times read queue was full causing retry
system.mem_ctrls1.numWrRetry                        0                       # Number of times write queue was full causing retry
system.mem_ctrls1.totGap                  15958230500                       # Total gap between requests
system.mem_ctrls1.readPktSize::0                    0                       # Read request sizes (log2)
system.mem_ctrls1.readPktSize::1                    0                       # Read request sizes (log2)
system.mem_ctrls1.readPktSize::2                    0                       # Read request sizes (log2)
system.mem_ctrls1.readPktSize::3                    0                       # Read request sizes (log2)
system.mem_ctrls1.readPktSize::4                    0                       # Read request sizes (log2)
system.mem_ctrls1.readPktSize::5                    0                       # Read request sizes (log2)
system.mem_ctrls1.readPktSize::6               159994                       # Read request sizes (log2)
system.mem_ctrls1.writePktSize::0                   0                       # Write request sizes (log2)
system.mem_ctrls1.writePktSize::1                   0                       # Write request sizes (log2)
system.mem_ctrls1.writePktSize::2                   0                       # Write request sizes (log2)
system.mem_ctrls1.writePktSize::3                   0                       # Write request sizes (log2)
system.mem_ctrls1.writePktSize::4                   0                       # Write request sizes (log2)
system.mem_ctrls1.writePktSize::5                   0                       # Write request sizes (log2)
system.mem_ctrls1.writePktSize::6               17128                       # Write request sizes (log2)
system.mem_ctrls1.rdQLenPdf::0                  77731                       # What read queue length does an incoming req see
system.mem_ctrls1.rdQLenPdf::1                  42875                       # What read queue length does an incoming req see
system.mem_ctrls1.rdQLenPdf::2                  22346                       # What read queue length does an incoming req see
system.mem_ctrls1.rdQLenPdf::3                  10548                       # What read queue length does an incoming req see
system.mem_ctrls1.rdQLenPdf::4                   4179                       # What read queue length does an incoming req see
system.mem_ctrls1.rdQLenPdf::5                   1557                       # What read queue length does an incoming req see
system.mem_ctrls1.rdQLenPdf::6                    523                       # What read queue length does an incoming req see
system.mem_ctrls1.rdQLenPdf::7                    176                       # What read queue length does an incoming req see
system.mem_ctrls1.rdQLenPdf::8                     40                       # What read queue length does an incoming req see
system.mem_ctrls1.rdQLenPdf::9                     11                       # What read queue length does an incoming req see
system.mem_ctrls1.rdQLenPdf::10                     2                       # What read queue length does an incoming req see
system.mem_ctrls1.rdQLenPdf::11                     0                       # What read queue length does an incoming req see
system.mem_ctrls1.rdQLenPdf::12                     0                       # What read queue length does an incoming req see
system.mem_ctrls1.rdQLenPdf::13                     0                       # What read queue length does an incoming req see
system.mem_ctrls1.rdQLenPdf::14                     0                       # What read queue length does an incoming req see
system.mem_ctrls1.rdQLenPdf::15                     0                       # What read queue length does an incoming req see
system.mem_ctrls1.rdQLenPdf::16                     0                       # What read queue length does an incoming req see
system.mem_ctrls1.rdQLenPdf::17                     0                       # What read queue length does an incoming req see
system.mem_ctrls1.rdQLenPdf::18                     0                       # What read queue length does an incoming req see
system.mem_ctrls1.rdQLenPdf::19                     0                       # What read queue length does an incoming req see
system.mem_ctrls1.rdQLenPdf::20                     0                       # What read queue length does an incoming req see
system.mem_ctrls1.rdQLenPdf::21                     0                       # What read queue length does an incoming req see
system.mem_ctrls1.rdQLenPdf::22                     0                       # What read queue length does an incoming req see
system.mem_ctrls1.rdQLenPdf::23                     0                       # What read queue length does an incoming req see
system.mem_ctrls1.rdQLenPdf::24                     0                       # What read queue length does an incoming req see
system.mem_ctrls1.rdQLenPdf::25                     0                       # What read queue length does an incoming req see
system.mem_ctrls1.rdQLenPdf::26                     0                       # What read queue length does an incoming req see
system.mem_ctrls1.rdQLenPdf::27                     0                       # What read queue length does an incoming req see
system.mem_ctrls1.rdQLenPdf::28                     0                       # What read queue length does an incoming req see
system.mem_ctrls1.rdQLenPdf::29                     0                       # What read queue length does an incoming req see
system.mem_ctrls1.rdQLenPdf::30                     0                       # What read queue length does an incoming req see
system.mem_ctrls1.rdQLenPdf::31                     0                       # What read queue length does an incoming req see
system.mem_ctrls1.wrQLenPdf::0                      1                       # What write queue length does an incoming req see
system.mem_ctrls1.wrQLenPdf::1                      1                       # What write queue length does an incoming req see
system.mem_ctrls1.wrQLenPdf::2                      1                       # What write queue length does an incoming req see
system.mem_ctrls1.wrQLenPdf::3                      1                       # What write queue length does an incoming req see
system.mem_ctrls1.wrQLenPdf::4                      1                       # What write queue length does an incoming req see
system.mem_ctrls1.wrQLenPdf::5                      1                       # What write queue length does an incoming req see
system.mem_ctrls1.wrQLenPdf::6                      1                       # What write queue length does an incoming req see
system.mem_ctrls1.wrQLenPdf::7                      1                       # What write queue length does an incoming req see
system.mem_ctrls1.wrQLenPdf::8                      1                       # What write queue length does an incoming req see
system.mem_ctrls1.wrQLenPdf::9                      1                       # What write queue length does an incoming req see
system.mem_ctrls1.wrQLenPdf::10                     1                       # What write queue length does an incoming req see
system.mem_ctrls1.wrQLenPdf::11                     1                       # What write queue length does an incoming req see
system.mem_ctrls1.wrQLenPdf::12                     1                       # What write queue length does an incoming req see
system.mem_ctrls1.wrQLenPdf::13                     1                       # What write queue length does an incoming req see
system.mem_ctrls1.wrQLenPdf::14                     1                       # What write queue length does an incoming req see
system.mem_ctrls1.wrQLenPdf::15                   262                       # What write queue length does an incoming req see
system.mem_ctrls1.wrQLenPdf::16                   319                       # What write queue length does an incoming req see
system.mem_ctrls1.wrQLenPdf::17                   671                       # What write queue length does an incoming req see
system.mem_ctrls1.wrQLenPdf::18                   996                       # What write queue length does an incoming req see
system.mem_ctrls1.wrQLenPdf::19                  1054                       # What write queue length does an incoming req see
system.mem_ctrls1.wrQLenPdf::20                  1069                       # What write queue length does an incoming req see
system.mem_ctrls1.wrQLenPdf::21                  1064                       # What write queue length does an incoming req see
system.mem_ctrls1.wrQLenPdf::22                  1060                       # What write queue length does an incoming req see
system.mem_ctrls1.wrQLenPdf::23                  1058                       # What write queue length does an incoming req see
system.mem_ctrls1.wrQLenPdf::24                  1061                       # What write queue length does an incoming req see
system.mem_ctrls1.wrQLenPdf::25                  1075                       # What write queue length does an incoming req see
system.mem_ctrls1.wrQLenPdf::26                  1061                       # What write queue length does an incoming req see
system.mem_ctrls1.wrQLenPdf::27                  1054                       # What write queue length does an incoming req see
system.mem_ctrls1.wrQLenPdf::28                  1066                       # What write queue length does an incoming req see
system.mem_ctrls1.wrQLenPdf::29                  1050                       # What write queue length does an incoming req see
system.mem_ctrls1.wrQLenPdf::30                  1055                       # What write queue length does an incoming req see
system.mem_ctrls1.wrQLenPdf::31                  1056                       # What write queue length does an incoming req see
system.mem_ctrls1.wrQLenPdf::32                  1051                       # What write queue length does an incoming req see
system.mem_ctrls1.wrQLenPdf::33                    27                       # What write queue length does an incoming req see
system.mem_ctrls1.wrQLenPdf::34                     4                       # What write queue length does an incoming req see
system.mem_ctrls1.wrQLenPdf::35                     0                       # What write queue length does an incoming req see
system.mem_ctrls1.wrQLenPdf::36                     0                       # What write queue length does an incoming req see
system.mem_ctrls1.wrQLenPdf::37                     0                       # What write queue length does an incoming req see
system.mem_ctrls1.wrQLenPdf::38                     0                       # What write queue length does an incoming req see
system.mem_ctrls1.wrQLenPdf::39                     0                       # What write queue length does an incoming req see
system.mem_ctrls1.wrQLenPdf::40                     0                       # What write queue length does an incoming req see
system.mem_ctrls1.wrQLenPdf::41                     0                       # What write queue length does an incoming req see
system.mem_ctrls1.wrQLenPdf::42                     0                       # What write queue length does an incoming req see
system.mem_ctrls1.wrQLenPdf::43                     0                       # What write queue length does an incoming req see
system.mem_ctrls1.wrQLenPdf::44                     0                       # What write queue length does an incoming req see
system.mem_ctrls1.wrQLenPdf::45                     0                       # What write queue length does an incoming req see
system.mem_ctrls1.wrQLenPdf::46                     0                       # What write queue length does an incoming req see
system.mem_ctrls1.wrQLenPdf::47                     0                       # What write queue length does an incoming req see
system.mem_ctrls1.wrQLenPdf::48                     0                       # What write queue length does an incoming req see
system.mem_ctrls1.wrQLenPdf::49                     0                       # What write queue length does an incoming req see
system.mem_ctrls1.wrQLenPdf::50                     0                       # What write queue length does an incoming req see
system.mem_ctrls1.wrQLenPdf::51                     0                       # What write queue length does an incoming req see
system.mem_ctrls1.wrQLenPdf::52                     0                       # What write queue length does an incoming req see
system.mem_ctrls1.wrQLenPdf::53                     0                       # What write queue length does an incoming req see
system.mem_ctrls1.wrQLenPdf::54                     0                       # What write queue length does an incoming req see
system.mem_ctrls1.wrQLenPdf::55                     0                       # What write queue length does an incoming req see
system.mem_ctrls1.wrQLenPdf::56                     0                       # What write queue length does an incoming req see
system.mem_ctrls1.wrQLenPdf::57                     0                       # What write queue length does an incoming req see
system.mem_ctrls1.wrQLenPdf::58                     0                       # What write queue length does an incoming req see
system.mem_ctrls1.wrQLenPdf::59                     0                       # What write queue length does an incoming req see
system.mem_ctrls1.wrQLenPdf::60                     0                       # What write queue length does an incoming req see
system.mem_ctrls1.wrQLenPdf::61                     0                       # What write queue length does an incoming req see
system.mem_ctrls1.wrQLenPdf::62                     0                       # What write queue length does an incoming req see
system.mem_ctrls1.wrQLenPdf::63                     0                       # What write queue length does an incoming req see
system.mem_ctrls1.bytesPerActivate::samples       104582                       # Bytes accessed per row activation
system.mem_ctrls1.bytesPerActivate::mean   108.371995                       # Bytes accessed per row activation
system.mem_ctrls1.bytesPerActivate::gmean    85.648292                       # Bytes accessed per row activation
system.mem_ctrls1.bytesPerActivate::stdev   118.245225                       # Bytes accessed per row activation
system.mem_ctrls1.bytesPerActivate::0-127        76114     72.78%     72.78% # Bytes accessed per row activation
system.mem_ctrls1.bytesPerActivate::128-255        20030     19.15%     91.93% # Bytes accessed per row activation
system.mem_ctrls1.bytesPerActivate::256-383         3585      3.43%     95.36% # Bytes accessed per row activation
system.mem_ctrls1.bytesPerActivate::384-511         1911      1.83%     97.19% # Bytes accessed per row activation
system.mem_ctrls1.bytesPerActivate::512-639         1180      1.13%     98.32% # Bytes accessed per row activation
system.mem_ctrls1.bytesPerActivate::640-767         1019      0.97%     99.29% # Bytes accessed per row activation
system.mem_ctrls1.bytesPerActivate::768-895          245      0.23%     99.52% # Bytes accessed per row activation
system.mem_ctrls1.bytesPerActivate::896-1023          230      0.22%     99.74% # Bytes accessed per row activation
system.mem_ctrls1.bytesPerActivate::1024-1151          268      0.26%    100.00% # Bytes accessed per row activation
system.mem_ctrls1.bytesPerActivate::total       104582                       # Bytes accessed per row activation
system.mem_ctrls1.rdPerTurnAround::samples         1032                       # Reads before turning the bus around for writes
system.mem_ctrls1.rdPerTurnAround::mean    155.017442                       # Reads before turning the bus around for writes
system.mem_ctrls1.rdPerTurnAround::gmean    54.056094                       # Reads before turning the bus around for writes
system.mem_ctrls1.rdPerTurnAround::stdev  2144.890412                       # Reads before turning the bus around for writes
system.mem_ctrls1.rdPerTurnAround::0-4095         1031     99.90%     99.90% # Reads before turning the bus around for writes
system.mem_ctrls1.rdPerTurnAround::65536-69631            1      0.10%    100.00% # Reads before turning the bus around for writes
system.mem_ctrls1.rdPerTurnAround::total         1032                       # Reads before turning the bus around for writes
system.mem_ctrls1.wrPerTurnAround::samples         1032                       # Writes before turning the bus around for reads
system.mem_ctrls1.wrPerTurnAround::mean     16.578488                       # Writes before turning the bus around for reads
system.mem_ctrls1.wrPerTurnAround::gmean    16.555082                       # Writes before turning the bus around for reads
system.mem_ctrls1.wrPerTurnAround::stdev     0.895967                       # Writes before turning the bus around for reads
system.mem_ctrls1.wrPerTurnAround::16             720     69.77%     69.77% # Writes before turning the bus around for reads
system.mem_ctrls1.wrPerTurnAround::17              30      2.91%     72.67% # Writes before turning the bus around for reads
system.mem_ctrls1.wrPerTurnAround::18             279     27.03%     99.71% # Writes before turning the bus around for reads
system.mem_ctrls1.wrPerTurnAround::19               3      0.29%    100.00% # Writes before turning the bus around for reads
system.mem_ctrls1.wrPerTurnAround::total         1032                       # Writes before turning the bus around for reads
system.mem_ctrls1.totQLat                  4797403500                       # Total ticks spent queuing
system.mem_ctrls1.totMemAccLat             7797178500                       # Total ticks spent from burst creation until serviced by the DRAM
system.mem_ctrls1.totBusLat                 799940000                       # Total ticks spent in databus transfers
system.mem_ctrls1.avgQLat                    29986.02                       # Average queueing delay per DRAM burst
system.mem_ctrls1.avgBusLat                   5000.00                       # Average bus latency per DRAM burst
system.mem_ctrls1.avgMemAccLat               48736.02                       # Average memory access latency per DRAM burst
system.mem_ctrls1.avgRdBW                      641.60                       # Average DRAM read bandwidth in MiByte/s
system.mem_ctrls1.avgWrBW                       68.61                       # Average achieved write bandwidth in MiByte/s
system.mem_ctrls1.avgRdBWSys                   641.63                       # Average system read bandwidth in MiByte/s
system.mem_ctrls1.avgWrBWSys                    68.69                       # Average system write bandwidth in MiByte/s
system.mem_ctrls1.peakBW                     12800.00                       # Theoretical peak bandwidth in MiByte/s
system.mem_ctrls1.busUtil                        5.55                       # Data bus utilization in percentage
system.mem_ctrls1.busUtilRead                    5.01                       # Data bus utilization in percentage for reads
system.mem_ctrls1.busUtilWrite                   0.54                       # Data bus utilization in percentage for writes
system.mem_ctrls1.avgRdQLen                      1.56                       # Average read queue length when enqueuing
system.mem_ctrls1.avgWrQLen                     12.85                       # Average write queue length when enqueuing
system.mem_ctrls1.readRowHits                   68860                       # Number of row buffer hits during reads
system.mem_ctrls1.writeRowHits                   3651                       # Number of row buffer hits during writes
system.mem_ctrls1.readRowHitRate                43.04                       # Row buffer hit rate for reads
system.mem_ctrls1.writeRowHitRate               21.32                       # Row buffer hit rate for writes
system.mem_ctrls1.avgGap                     90097.39                       # Average gap between requests
system.mem_ctrls1.pageHitRate                   40.94                       # Row buffer hit rate, read and write combined
system.mem_ctrls1_0.actEnergy               357128520                       # Energy for activate commands per rank (pJ)
system.mem_ctrls1_0.preEnergy               189806925                       # Energy for precharge commands per rank (pJ)
system.mem_ctrls1_0.readEnergy              553292880                       # Energy for read commands per rank (pJ)
system.mem_ctrls1_0.writeEnergy              41556420                       # Energy for write commands per rank (pJ)
system.mem_ctrls1_0.refreshEnergy        1256324160.000000                       # Energy for refresh commands per rank (pJ)
system.mem_ctrls1_0.actBackEnergy          1484973120                       # Energy for active background per rank (pJ)
system.mem_ctrls1_0.preBackEnergy            34371840                       # Energy for precharge background per rank (pJ)
system.mem_ctrls1_0.actPowerDownEnergy     5229369810                       # Energy for active power-down per rank (pJ)
system.mem_ctrls1_0.prePowerDownEnergy      326151360                       # Energy for precharge power-down per rank (pJ)
system.mem_ctrls1_0.selfRefreshEnergy        90345915                       # Energy for self refresh per rank (pJ)
system.mem_ctrls1_0.totalEnergy            9563621790                       # Total energy per rank (pJ)
system.mem_ctrls1_0.averagePower           599.267979                       # Core power per rank (mW)
system.mem_ctrls1_0.totalIdleTime         12612170000                       # Total Idle time Per DRAM Rank
system.mem_ctrls1_0.memoryStateTime::IDLE     20314000                       # Time in different power states
system.mem_ctrls1_0.memoryStateTime::REF    531716000                       # Time in different power states
system.mem_ctrls1_0.memoryStateTime::SREF    294874750                       # Time in different power states
system.mem_ctrls1_0.memoryStateTime::PRE_PDN    849394250                       # Time in different power states
system.mem_ctrls1_0.memoryStateTime::ACT   2794152750                       # Time in different power states
system.mem_ctrls1_0.memoryStateTime::ACT_PDN  11468388250                       # Time in different power states
system.mem_ctrls1_1.actEnergy               389615520                       # Energy for activate commands per rank (pJ)
system.mem_ctrls1_1.preEnergy               207081765                       # Energy for precharge commands per rank (pJ)
system.mem_ctrls1_1.readEnergy              589021440                       # Energy for read commands per rank (pJ)
system.mem_ctrls1_1.writeEnergy              47752560                       # Energy for write commands per rank (pJ)
system.mem_ctrls1_1.refreshEnergy        1252636320.000000                       # Energy for refresh commands per rank (pJ)
system.mem_ctrls1_1.actBackEnergy          1574037330                       # Energy for active background per rank (pJ)
system.mem_ctrls1_1.preBackEnergy            32349120                       # Energy for precharge background per rank (pJ)
system.mem_ctrls1_1.actPowerDownEnergy     5285394540                       # Energy for active power-down per rank (pJ)
system.mem_ctrls1_1.prePowerDownEnergy      234780960                       # Energy for precharge power-down per rank (pJ)
system.mem_ctrls1_1.selfRefreshEnergy        62995140                       # Energy for self refresh per rank (pJ)
system.mem_ctrls1_1.totalEnergy            9675970245                       # Total energy per rank (pJ)
system.mem_ctrls1_1.averagePower           606.307867                       # Core power per rank (mW)
system.mem_ctrls1_1.totalIdleTime         12422513750                       # Total Idle time Per DRAM Rank
system.mem_ctrls1_1.memoryStateTime::IDLE     16085000                       # Time in different power states
system.mem_ctrls1_1.memoryStateTime::REF    530060000                       # Time in different power states
system.mem_ctrls1_1.memoryStateTime::SREF    219896250                       # Time in different power states
system.mem_ctrls1_1.memoryStateTime::PRE_PDN    611269250                       # Time in different power states
system.mem_ctrls1_1.memoryStateTime::ACT   2990011750                       # Time in different power states
system.mem_ctrls1_1.memoryStateTime::ACT_PDN  11591517750                       # Time in different power states
system.mem_ctrls2.pwrStateResidencyTicks::UNDEFINED  15958840000                       # Cumulative time (in ticks) in various power states
system.mem_ctrls2.bytes_read::ruby.dir_cntrl2     10249728                       # Number of bytes read from this memory
system.mem_ctrls2.bytes_read::total          10249728                       # Number of bytes read from this memory
system.mem_ctrls2.bytes_written::ruby.dir_cntrl2      1100288                       # Number of bytes written to this memory
system.mem_ctrls2.bytes_written::total        1100288                       # Number of bytes written to this memory
system.mem_ctrls2.num_reads::ruby.dir_cntrl2       160152                       # Number of read requests responded to by this memory
system.mem_ctrls2.num_reads::total             160152                       # Number of read requests responded to by this memory
system.mem_ctrls2.num_writes::ruby.dir_cntrl2        17192                       # Number of write requests responded to by this memory
system.mem_ctrls2.num_writes::total             17192                       # Number of write requests responded to by this memory
system.mem_ctrls2.bw_read::ruby.dir_cntrl2    642260214                       # Total read bandwidth from this memory (bytes/s)
system.mem_ctrls2.bw_read::total            642260214                       # Total read bandwidth from this memory (bytes/s)
system.mem_ctrls2.bw_write::ruby.dir_cntrl2     68945362                       # Write bandwidth from this memory (bytes/s)
system.mem_ctrls2.bw_write::total            68945362                       # Write bandwidth from this memory (bytes/s)
system.mem_ctrls2.bw_total::ruby.dir_cntrl2    711205576                       # Total bandwidth to/from this memory (bytes/s)
system.mem_ctrls2.bw_total::total           711205576                       # Total bandwidth to/from this memory (bytes/s)
system.mem_ctrls2.readReqs                     160152                       # Number of read requests accepted
system.mem_ctrls2.avgNetLat                      0.00                       # Average network latency to DRAM controller
system.mem_ctrls2.writeReqs                     17192                       # Number of write requests accepted
system.mem_ctrls2.readBursts                   160152                       # Number of DRAM read bursts, including those serviced by the write queue
system.mem_ctrls2.writeBursts                   17192                       # Number of DRAM write bursts, including those merged in the write queue
system.mem_ctrls2.bytesReadDRAM              10249408                       # Total number of bytes read from DRAM
system.mem_ctrls2.bytesReadWrQ                    320                       # Total number of bytes read from write queue
system.mem_ctrls2.bytesWritten                1098368                       # Total number of bytes written to DRAM
system.mem_ctrls2.bytesReadSys               10249728                       # Total read bytes from the system interface side
system.mem_ctrls2.bytesWrittenSys             1100288                       # Total written bytes from the system interface side
system.mem_ctrls2.servicedByWrQ                     5                       # Number of DRAM read bursts serviced by the write queue
system.mem_ctrls2.mergedWrBursts                    0                       # Number of DRAM write bursts merged with an existing one
system.mem_ctrls2.neitherReadNorWriteReqs            0                       # Number of requests that are neither read nor write
system.mem_ctrls2.perBankRdBursts::0             9993                       # Per bank write bursts
system.mem_ctrls2.perBankRdBursts::1             9513                       # Per bank write bursts
system.mem_ctrls2.perBankRdBursts::2             9552                       # Per bank write bursts
system.mem_ctrls2.perBankRdBursts::3             9725                       # Per bank write bursts
system.mem_ctrls2.perBankRdBursts::4             9785                       # Per bank write bursts
system.mem_ctrls2.perBankRdBursts::5             9479                       # Per bank write bursts
system.mem_ctrls2.perBankRdBursts::6             9631                       # Per bank write bursts
system.mem_ctrls2.perBankRdBursts::7             9807                       # Per bank write bursts
system.mem_ctrls2.perBankRdBursts::8            10098                       # Per bank write bursts
system.mem_ctrls2.perBankRdBursts::9            10185                       # Per bank write bursts
system.mem_ctrls2.perBankRdBursts::10           10786                       # Per bank write bursts
system.mem_ctrls2.perBankRdBursts::11           10467                       # Per bank write bursts
system.mem_ctrls2.perBankRdBursts::12           10412                       # Per bank write bursts
system.mem_ctrls2.perBankRdBursts::13           10639                       # Per bank write bursts
system.mem_ctrls2.perBankRdBursts::14           10170                       # Per bank write bursts
system.mem_ctrls2.perBankRdBursts::15            9905                       # Per bank write bursts
system.mem_ctrls2.perBankWrBursts::0             1188                       # Per bank write bursts
system.mem_ctrls2.perBankWrBursts::1              920                       # Per bank write bursts
system.mem_ctrls2.perBankWrBursts::2              945                       # Per bank write bursts
system.mem_ctrls2.perBankWrBursts::3             1017                       # Per bank write bursts
system.mem_ctrls2.perBankWrBursts::4             1053                       # Per bank write bursts
system.mem_ctrls2.perBankWrBursts::5              887                       # Per bank write bursts
system.mem_ctrls2.perBankWrBursts::6              899                       # Per bank write bursts
system.mem_ctrls2.perBankWrBursts::7              990                       # Per bank write bursts
system.mem_ctrls2.perBankWrBursts::8             1075                       # Per bank write bursts
system.mem_ctrls2.perBankWrBursts::9             1116                       # Per bank write bursts
system.mem_ctrls2.perBankWrBursts::10            1274                       # Per bank write bursts
system.mem_ctrls2.perBankWrBursts::11            1224                       # Per bank write bursts
system.mem_ctrls2.perBankWrBursts::12            1146                       # Per bank write bursts
system.mem_ctrls2.perBankWrBursts::13            1203                       # Per bank write bursts
system.mem_ctrls2.perBankWrBursts::14            1141                       # Per bank write bursts
system.mem_ctrls2.perBankWrBursts::15            1084                       # Per bank write bursts
system.mem_ctrls2.numRdRetry                        0                       # Number of times read queue was full causing retry
system.mem_ctrls2.numWrRetry                        0                       # Number of times write queue was full causing retry
system.mem_ctrls2.totGap                  15957898000                       # Total gap between requests
system.mem_ctrls2.readPktSize::0                    0                       # Read request sizes (log2)
system.mem_ctrls2.readPktSize::1                    0                       # Read request sizes (log2)
system.mem_ctrls2.readPktSize::2                    0                       # Read request sizes (log2)
system.mem_ctrls2.readPktSize::3                    0                       # Read request sizes (log2)
system.mem_ctrls2.readPktSize::4                    0                       # Read request sizes (log2)
system.mem_ctrls2.readPktSize::5                    0                       # Read request sizes (log2)
system.mem_ctrls2.readPktSize::6               160152                       # Read request sizes (log2)
system.mem_ctrls2.writePktSize::0                   0                       # Write request sizes (log2)
system.mem_ctrls2.writePktSize::1                   0                       # Write request sizes (log2)
system.mem_ctrls2.writePktSize::2                   0                       # Write request sizes (log2)
system.mem_ctrls2.writePktSize::3                   0                       # Write request sizes (log2)
system.mem_ctrls2.writePktSize::4                   0                       # Write request sizes (log2)
system.mem_ctrls2.writePktSize::5                   0                       # Write request sizes (log2)
system.mem_ctrls2.writePktSize::6               17192                       # Write request sizes (log2)
system.mem_ctrls2.rdQLenPdf::0                  77868                       # What read queue length does an incoming req see
system.mem_ctrls2.rdQLenPdf::1                  43041                       # What read queue length does an incoming req see
system.mem_ctrls2.rdQLenPdf::2                  22248                       # What read queue length does an incoming req see
system.mem_ctrls2.rdQLenPdf::3                  10569                       # What read queue length does an incoming req see
system.mem_ctrls2.rdQLenPdf::4                   4207                       # What read queue length does an incoming req see
system.mem_ctrls2.rdQLenPdf::5                   1477                       # What read queue length does an incoming req see
system.mem_ctrls2.rdQLenPdf::6                    500                       # What read queue length does an incoming req see
system.mem_ctrls2.rdQLenPdf::7                    166                       # What read queue length does an incoming req see
system.mem_ctrls2.rdQLenPdf::8                     56                       # What read queue length does an incoming req see
system.mem_ctrls2.rdQLenPdf::9                     12                       # What read queue length does an incoming req see
system.mem_ctrls2.rdQLenPdf::10                     2                       # What read queue length does an incoming req see
system.mem_ctrls2.rdQLenPdf::11                     1                       # What read queue length does an incoming req see
system.mem_ctrls2.rdQLenPdf::12                     0                       # What read queue length does an incoming req see
system.mem_ctrls2.rdQLenPdf::13                     0                       # What read queue length does an incoming req see
system.mem_ctrls2.rdQLenPdf::14                     0                       # What read queue length does an incoming req see
system.mem_ctrls2.rdQLenPdf::15                     0                       # What read queue length does an incoming req see
system.mem_ctrls2.rdQLenPdf::16                     0                       # What read queue length does an incoming req see
system.mem_ctrls2.rdQLenPdf::17                     0                       # What read queue length does an incoming req see
system.mem_ctrls2.rdQLenPdf::18                     0                       # What read queue length does an incoming req see
system.mem_ctrls2.rdQLenPdf::19                     0                       # What read queue length does an incoming req see
system.mem_ctrls2.rdQLenPdf::20                     0                       # What read queue length does an incoming req see
system.mem_ctrls2.rdQLenPdf::21                     0                       # What read queue length does an incoming req see
system.mem_ctrls2.rdQLenPdf::22                     0                       # What read queue length does an incoming req see
system.mem_ctrls2.rdQLenPdf::23                     0                       # What read queue length does an incoming req see
system.mem_ctrls2.rdQLenPdf::24                     0                       # What read queue length does an incoming req see
system.mem_ctrls2.rdQLenPdf::25                     0                       # What read queue length does an incoming req see
system.mem_ctrls2.rdQLenPdf::26                     0                       # What read queue length does an incoming req see
system.mem_ctrls2.rdQLenPdf::27                     0                       # What read queue length does an incoming req see
system.mem_ctrls2.rdQLenPdf::28                     0                       # What read queue length does an incoming req see
system.mem_ctrls2.rdQLenPdf::29                     0                       # What read queue length does an incoming req see
system.mem_ctrls2.rdQLenPdf::30                     0                       # What read queue length does an incoming req see
system.mem_ctrls2.rdQLenPdf::31                     0                       # What read queue length does an incoming req see
system.mem_ctrls2.wrQLenPdf::0                      1                       # What write queue length does an incoming req see
system.mem_ctrls2.wrQLenPdf::1                      1                       # What write queue length does an incoming req see
system.mem_ctrls2.wrQLenPdf::2                      1                       # What write queue length does an incoming req see
system.mem_ctrls2.wrQLenPdf::3                      1                       # What write queue length does an incoming req see
system.mem_ctrls2.wrQLenPdf::4                      1                       # What write queue length does an incoming req see
system.mem_ctrls2.wrQLenPdf::5                      1                       # What write queue length does an incoming req see
system.mem_ctrls2.wrQLenPdf::6                      1                       # What write queue length does an incoming req see
system.mem_ctrls2.wrQLenPdf::7                      1                       # What write queue length does an incoming req see
system.mem_ctrls2.wrQLenPdf::8                      1                       # What write queue length does an incoming req see
system.mem_ctrls2.wrQLenPdf::9                      1                       # What write queue length does an incoming req see
system.mem_ctrls2.wrQLenPdf::10                     1                       # What write queue length does an incoming req see
system.mem_ctrls2.wrQLenPdf::11                     1                       # What write queue length does an incoming req see
system.mem_ctrls2.wrQLenPdf::12                     1                       # What write queue length does an incoming req see
system.mem_ctrls2.wrQLenPdf::13                     1                       # What write queue length does an incoming req see
system.mem_ctrls2.wrQLenPdf::14                     1                       # What write queue length does an incoming req see
system.mem_ctrls2.wrQLenPdf::15                   289                       # What write queue length does an incoming req see
system.mem_ctrls2.wrQLenPdf::16                   336                       # What write queue length does an incoming req see
system.mem_ctrls2.wrQLenPdf::17                   701                       # What write queue length does an incoming req see
system.mem_ctrls2.wrQLenPdf::18                   976                       # What write queue length does an incoming req see
system.mem_ctrls2.wrQLenPdf::19                  1057                       # What write queue length does an incoming req see
system.mem_ctrls2.wrQLenPdf::20                  1065                       # What write queue length does an incoming req see
system.mem_ctrls2.wrQLenPdf::21                  1077                       # What write queue length does an incoming req see
system.mem_ctrls2.wrQLenPdf::22                  1068                       # What write queue length does an incoming req see
system.mem_ctrls2.wrQLenPdf::23                  1067                       # What write queue length does an incoming req see
[...]
system.ruby.L2Cache_Controller.M.L1_GET_INSTR |          14     25.00%     25.00% |           0      0.00%     25.00% |           0      0.00%     25.00% |           0      0.00%     25.00% |           0      0.00%     25.00% |           0      0.00%     25.00% |           0      0.00%     25.00% |           0      0.00%     25.00% |          14     25.00%     50.00% |          14     25.00%     75.00% |           0      0.00%     75.00% |           0      0.00%     75.00% |           0      0.00%     75.00% |           0      0.00%     75.00% |          14     25.00%    100.00% |           0      0.00%    100.00%
system.ruby.L2Cache_Controller.M.L1_GET_INSTR::total           56                      
system.ruby.L2Cache_Controller.M.L1_GETS |        9883      6.14%      6.14% |       10062      6.25%     12.39% |       10040      6.24%     18.63% |       10160      6.31%     24.94% |        9805      6.09%     31.03% |        9665      6.00%     37.03% |        9760      6.06%     43.10% |        9928      6.17%     49.27% |        9940      6.17%     55.44% |        9734      6.05%     61.49% |       10008      6.22%     67.70% |       10754      6.68%     74.38% |       10345      6.43%     80.81% |       10425      6.48%     87.29% |       10980      6.82%     94.11% |        9483      5.89%    100.00%
system.ruby.L2Cache_Controller.M.L1_GETS::total       160972                      
system.ruby.L2Cache_Controller.M.L1_GETX |        1278      6.05%      6.05% |        1352      6.40%     12.44% |        1429      6.76%     19.21% |        1427      6.75%     25.96% |        1287      6.09%     32.05% |        1226      5.80%     37.85% |        1177      5.57%     43.42% |        1351      6.39%     49.81% |        1241      5.87%     55.68% |        1303      6.17%     61.85% |        1277      6.04%     67.89% |        1229      5.82%     73.71% |        1215      5.75%     79.45% |        1146      5.42%     84.88% |        1868      8.84%     93.72% |        1328      6.28%    100.00%
system.ruby.L2Cache_Controller.M.L1_GETX::total        21134                      
system.ruby.L2Cache_Controller.M.L2_Replacement |        4348      6.37%      6.37% |        4231      6.19%     12.56% |        4237      6.20%     18.76% |        4301      6.30%     25.06% |        4210      6.16%     31.22% |        4230      6.19%     37.41% |        4203      6.15%     43.57% |        4237      6.20%     49.77% |        4300      6.30%     56.07% |        4164      6.10%     62.16% |        4251      6.22%     68.38% |        4265      6.24%     74.63% |        4262      6.24%     80.87% |        4371      6.40%     87.27% |        4387      6.42%     93.69% |        4311      6.31%    100.00%
system.ruby.L2Cache_Controller.M.L2_Replacement::total        68308                      
system.ruby.L2Cache_Controller.M.L2_Replacement_clean |        3282      6.33%      6.33% |        3162      6.09%     12.42% |        3057      5.89%     18.31% |        3237      6.24%     24.55% |        3136      6.04%     30.60% |        3231      6.23%     36.82% |        3279      6.32%     43.14% |        3279      6.32%     49.47% |        3332      6.42%     55.89% |        3217      6.20%     62.09% |        3244      6.25%     68.34% |        3220      6.21%     74.55% |        3361      6.48%     81.03% |        3326      6.41%     87.44% |        3266      6.30%     93.73% |        3252      6.27%    100.00%
system.ruby.L2Cache_Controller.M.L2_Replacement_clean::total        51881                      
system.ruby.L2Cache_Controller.MT.L1_GETS |          70      3.98%      3.98% |          70      3.98%      7.96% |          98      5.57%     13.54% |          98      5.57%     19.11% |          98      5.57%     24.69% |         140      7.96%     32.65% |         140      7.96%     40.61% |         140      7.96%     48.58% |         136      7.74%     56.31% |         136      7.74%     64.05% |         132      7.51%     71.56% |         136      7.74%     79.29% |         112      6.37%     85.67% |         112      6.37%     92.04% |          70      3.98%     96.02% |          70      3.98%    100.00%
system.ruby.L2Cache_Controller.MT.L1_GETS::total         1758                      
system.ruby.L2Cache_Controller.MT.L1_GETX |           0      0.00%      0.00% |           0      0.00%      0.00% |           0      0.00%      0.00% |           0      0.00%      0.00% |           0      0.00%      0.00% |           0      0.00%      0.00% |           0      0.00%      0.00% |           0      0.00%      0.00% |           2     20.00%     20.00% |           2     20.00%     40.00% |           4     40.00%     80.00% |           2     20.00%    100.00% |           0      0.00%    100.00% |           0      0.00%    100.00% |           0      0.00%    100.00% |           0      0.00%    100.00%
system.ruby.L2Cache_Controller.MT.L1_GETX::total           10                      
system.ruby.L2Cache_Controller.MT.L1_PUTX |       49030      6.23%      6.23% |       49078      6.24%     12.47% |       48905      6.22%     18.69% |       49399      6.28%     24.97% |       48651      6.18%     31.15% |       48614      6.18%     37.33% |       48737      6.19%     43.52% |       49135      6.25%     49.77% |       49125      6.24%     56.01% |       48717      6.19%     62.21% |       49062      6.24%     68.44% |       49817      6.33%     74.77% |       49575      6.30%     81.08% |       49564      6.30%     87.38% |       50696      6.44%     93.82% |       48626      6.18%    100.00%
system.ruby.L2Cache_Controller.MT.L1_PUTX::total       786731                      
system.ruby.L2Cache_Controller.MT.L2_Replacement |           8      8.60%      8.60% |           4      4.30%     12.90% |          10     10.75%     23.66% |           8      8.60%     32.26% |           8      8.60%     40.86% |           5      5.38%     46.24% |           5      5.38%     51.61% |           4      4.30%     55.91% |           7      7.53%     63.44% |           5      5.38%     68.82% |           5      5.38%     74.19% |           8      8.60%     82.80% |           3      3.23%     86.02% |           4      4.30%     90.32% |           6      6.45%     96.77% |           3      3.23%    100.00%
system.ruby.L2Cache_Controller.MT.L2_Replacement::total           93                      
system.ruby.L2Cache_Controller.MT.L2_Replacement_clean |          29      7.49%      7.49% |          28      7.24%     14.73% |          15      3.88%     18.60% |          26      6.72%     25.32% |          22      5.68%     31.01% |          26      6.72%     37.73% |          18      4.65%     42.38% |          23      5.94%     48.32% |          21      5.43%     53.75% |          31      8.01%     61.76% |          29      7.49%     69.25% |          25      6.46%     75.71% |          28      7.24%     82.95% |          24      6.20%     89.15% |          20      5.17%     94.32% |          22      5.68%    100.00%
system.ruby.L2Cache_Controller.MT.L2_Replacement_clean::total          387                      
system.ruby.L2Cache_Controller.M_I.L1_GET_INSTR |           0      0.00%      0.00% |           0      0.00%      0.00% |           1     50.00%     50.00% |           0      0.00%     50.00% |           1     50.00%    100.00% |           0      0.00%    100.00% |           0      0.00%    100.00% |           0      0.00%    100.00% |           0      0.00%    100.00% |           0      0.00%    100.00% |           0      0.00%    100.00% |           0      0.00%    100.00% |           0      0.00%    100.00% |           0      0.00%    100.00% |           0      0.00%    100.00% |           0      0.00%    100.00%
system.ruby.L2Cache_Controller.M_I.L1_GET_INSTR::total            2                      
system.ruby.L2Cache_Controller.M_I.Mem_Ack |        8259      6.32%      6.32% |        8086      6.19%     12.51% |        7981      6.11%     18.62% |        8155      6.24%     24.87% |        7982      6.11%     30.98% |        8169      6.25%     37.23% |        8168      6.25%     43.49% |        8175      6.26%     49.74% |        8337      6.38%     56.13% |        7932      6.07%     62.20% |        8071      6.18%     68.38% |        8152      6.24%     74.62% |        8259      6.32%     80.94% |        8327      6.38%     87.32% |        8360      6.40%     93.72% |        8205      6.28%    100.00%
system.ruby.L2Cache_Controller.M_I.Mem_Ack::total       130618                      
system.ruby.L2Cache_Controller.MT_I.WB_Data |           2      4.88%      4.88% |           2      4.88%      9.76% |           5     12.20%     21.95% |           4      9.76%     31.71% |           4      9.76%     41.46% |           3      7.32%     48.78% |           1      2.44%     51.22% |           1      2.44%     53.66% |           3      7.32%     60.98% |           3      7.32%     68.29% |           1      2.44%     70.73% |           4      9.76%     80.49% |           2      4.88%     85.37% |           1      2.44%     87.80% |           2      4.88%     92.68% |           3      7.32%    100.00%
system.ruby.L2Cache_Controller.MT_I.WB_Data::total           41                      
system.ruby.L2Cache_Controller.MT_I.Ack_all |           6     11.54%     11.54% |           2      3.85%     15.38% |           5      9.62%     25.00% |           4      7.69%     32.69% |           4      7.69%     40.38% |           2      3.85%     44.23% |           4      7.69%     51.92% |           3      5.77%     57.69% |           4      7.69%     65.38% |           2      3.85%     69.23% |           4      7.69%     76.92% |           4      7.69%     84.62% |           1      1.92%     86.54% |           3      5.77%     92.31% |           4      7.69%    100.00% |           0      0.00%    100.00%
system.ruby.L2Cache_Controller.MT_I.Ack_all::total           52                      
system.ruby.L2Cache_Controller.MCT_I.WB_Data |          28      7.93%      7.93% |          26      7.37%     15.30% |          15      4.25%     19.55% |          23      6.52%     26.06% |          20      5.67%     31.73% |          25      7.08%     38.81% |          15      4.25%     43.06% |          22      6.23%     49.29% |          18      5.10%     54.39% |          28      7.93%     62.32% |          26      7.37%     69.69% |          22      6.23%     75.92% |          22      6.23%     82.15% |          23      6.52%     88.67% |          19      5.38%     94.05% |          21      5.95%    100.00%
system.ruby.L2Cache_Controller.MCT_I.WB_Data::total          353                      
system.ruby.L2Cache_Controller.MCT_I.Ack_all |           1      2.94%      2.94% |           2      5.88%      8.82% |           0      0.00%      8.82% |           3      8.82%     17.65% |           2      5.88%     23.53% |           1      2.94%     26.47% |           3      8.82%     35.29% |           1      2.94%     38.24% |           3      8.82%     47.06% |           3      8.82%     55.88% |           3      8.82%     64.71% |           3      8.82%     73.53% |           6     17.65%     91.18% |           1      2.94%     94.12% |           1      2.94%     97.06% |           1      2.94%    100.00%
system.ruby.L2Cache_Controller.MCT_I.Ack_all::total           34                      
system.ruby.L2Cache_Controller.I_I.Ack_all |         590      5.96%      5.96% |         659      6.66%     12.61% |         660      6.67%     19.28% |         579      5.85%     25.13% |         605      6.11%     31.24% |         672      6.79%     38.02% |         658      6.65%     44.67% |         629      6.35%     51.02% |         674      6.81%     57.83% |         511      5.16%     62.99% |         537      5.42%     68.41% |         632      6.38%     74.79% |         600      6.06%     80.85% |         601      6.07%     86.92% |         680      6.87%     93.79% |         615      6.21%    100.00%
system.ruby.L2Cache_Controller.I_I.Ack_all::total         9902                      
system.ruby.L2Cache_Controller.S_I.Ack   |           2      4.26%      4.26% |           2      4.26%      8.51% |           2      4.26%     12.77% |           4      8.51%     21.28% |           1      2.13%     23.40% |           5     10.64%     34.04% |           5     10.64%     44.68% |           3      6.38%     51.06% |           3      6.38%     57.45% |           4      8.51%     65.96% |           5     10.64%     76.60% |           2      4.26%     80.85% |           5     10.64%     91.49% |           1      2.13%     93.62% |           1      2.13%     95.74% |           2      4.26%    100.00%
system.ruby.L2Cache_Controller.S_I.Ack::total           47                      
system.ruby.L2Cache_Controller.S_I.Ack_all |           2      4.26%      4.26% |           2      4.26%      8.51% |           2      4.26%     12.77% |           4      8.51%     21.28% |           1      2.13%     23.40% |           5     10.64%     34.04% |           5     10.64%     44.68% |           3      6.38%     51.06% |           3      6.38%     57.45% |           4      8.51%     65.96% |           5     10.64%     76.60% |           2      4.26%     80.85% |           5     10.64%     91.49% |           1      2.13%     93.62% |           1      2.13%     95.74% |           2      4.26%    100.00%
system.ruby.L2Cache_Controller.S_I.Ack_all::total           47                      
system.ruby.L2Cache_Controller.ISS.Mem_Data |       29165      6.28%      6.28% |       28862      6.21%     12.49% |       28606      6.15%     18.64% |       29043      6.25%     24.89% |       28775      6.19%     31.08% |       28974      6.23%     37.31% |       29054      6.25%     43.57% |       29095      6.26%     49.83% |       29221      6.29%     56.11% |       28996      6.24%     62.35% |       29061      6.25%     68.61% |       29151      6.27%     74.88% |       29318      6.31%     81.19% |       29264      6.30%     87.48% |       29098      6.26%     93.74% |       29078      6.26%    100.00%
system.ruby.L2Cache_Controller.ISS.Mem_Data::total       464761                      
system.ruby.L2Cache_Controller.IS.Mem_Data |        1358      6.40%      6.40% |        1361      6.42%     12.82% |        1497      7.06%     19.87% |        1298      6.12%     25.99% |        1347      6.35%     32.34% |        1346      6.34%     38.68% |        1284      6.05%     44.74% |        1294      6.10%     50.84% |        1362      6.42%     57.26% |        1164      5.49%     62.74% |        1248      5.88%     68.63% |        1266      5.97%     74.59% |        1230      5.80%     80.39% |        1302      6.14%     86.53% |        1513      7.13%     93.66% |        1345      6.34%    100.00%
system.ruby.L2Cache_Controller.IS.Mem_Data::total        21215                      
system.ruby.L2Cache_Controller.IM.Mem_Data |        9628      6.22%      6.22% |        9726      6.28%     12.50% |        9753      6.30%     18.79% |        9707      6.27%     25.06% |        9719      6.28%     31.34% |        9701      6.26%     37.60% |        9698      6.26%     43.86% |        9710      6.27%     50.13% |        9665      6.24%     56.37% |        9633      6.22%     62.59% |        9666      6.24%     68.83% |        9635      6.22%     75.06% |        9634      6.22%     81.28% |        9665      6.24%     87.52% |        9674      6.25%     93.76% |        9658      6.24%    100.00%
system.ruby.L2Cache_Controller.IM.Mem_Data::total       154872                      
system.ruby.L2Cache_Controller.SS_MB.Exclusive_Unblock |          42      3.94%      3.94% |          42      3.94%      7.87% |          69      6.47%     14.34% |          56      5.25%     19.59% |          56      5.25%     24.84% |          84      7.87%     32.71% |          84      7.87%     40.58% |          84      7.87%     48.45% |          82      7.69%     56.14% |          82      7.69%     63.82% |          80      7.50%     71.32% |          82      7.69%     79.01% |          70      6.56%     85.57% |          70      6.56%     92.13% |          42      3.94%     96.06% |          42      3.94%    100.00%
system.ruby.L2Cache_Controller.SS_MB.Exclusive_Unblock::total         1067                      
system.ruby.L2Cache_Controller.MT_MB.Exclusive_Unblock |       49954      6.23%      6.23% |       50002      6.24%     12.47% |       49828      6.21%     18.68% |       50337      6.28%     24.96% |       49586      6.18%     31.15% |       49566      6.18%     37.33% |       49689      6.20%     43.53% |       50084      6.25%     49.77% |       50069      6.24%     56.02% |       49668      6.19%     62.21% |       50016      6.24%     68.45% |       50771      6.33%     74.78% |       50512      6.30%     81.08% |       50500      6.30%     87.38% |       51620      6.44%     93.82% |       49547      6.18%    100.00%
system.ruby.L2Cache_Controller.MT_MB.Exclusive_Unblock::total       801749                      
system.ruby.L2Cache_Controller.MT_IIB.WB_Data |          68      3.91%      3.91% |          68      3.91%      7.83% |          97      5.58%     13.41% |          95      5.47%     18.87% |          97      5.58%     24.45% |         137      7.88%     32.34% |         140      8.06%     40.39% |         138      7.94%     48.33% |         135      7.77%     56.10% |         134      7.71%     63.81% |         131      7.54%     71.35% |         136      7.83%     79.17% |         112      6.44%     85.62% |         111      6.39%     92.00% |          69      3.97%     95.97% |          70      4.03%    100.00%
system.ruby.L2Cache_Controller.MT_IIB.WB_Data::total         1738                      
system.ruby.L2Cache_Controller.MT_IIB.Unblock |           2     10.00%     10.00% |           2     10.00%     20.00% |           1      5.00%     25.00% |           3     15.00%     40.00% |           1      5.00%     45.00% |           3     15.00%     60.00% |           0      0.00%     60.00% |           2     10.00%     70.00% |           1      5.00%     75.00% |           2     10.00%     85.00% |           1      5.00%     90.00% |           0      0.00%     90.00% |           0      0.00%     90.00% |           1      5.00%     95.00% |           1      5.00%    100.00% |           0      0.00%    100.00%
system.ruby.L2Cache_Controller.MT_IIB.Unblock::total           20                      
system.ruby.L2Cache_Controller.MT_IB.WB_Data |           2     10.00%     10.00% |           2     10.00%     20.00% |           1      5.00%     25.00% |           3     15.00%     40.00% |           1      5.00%     45.00% |           3     15.00%     60.00% |           0      0.00%     60.00% |           2     10.00%     70.00% |           1      5.00%     75.00% |           2     10.00%     85.00% |           1      5.00%     90.00% |           0      0.00%     90.00% |           0      0.00%     90.00% |           1      5.00%     95.00% |           1      5.00%    100.00% |           0      0.00%    100.00%
system.ruby.L2Cache_Controller.MT_IB.WB_Data::total           20                      
system.ruby.L2Cache_Controller.MT_SB.Unblock |          68      3.91%      3.91% |          68      3.91%      7.83% |          97      5.58%     13.41% |          95      5.47%     18.87% |          97      5.58%     24.45% |         137      7.88%     32.34% |         140      8.06%     40.39% |         138      7.94%     48.33% |         135      7.77%     56.10% |         134      7.71%     63.81% |         131      7.54%     71.35% |         136      7.83%     79.17% |         112      6.44%     85.62% |         111      6.39%     92.00% |          69      3.97%     95.97% |          70      4.03%    100.00%
system.ruby.L2Cache_Controller.MT_SB.Unblock::total         1738                      

---------- End Simulation Statistics   ----------
