
---------- Begin Simulation Statistics ----------
sim_seconds                                  0.015961                       # Number of seconds simulated
sim_ticks                                 15961123500                       # Number of ticks simulated
final_tick                                15961123500                       # Number of ticks from beginning of simulation (restored from checkpoints and never reset)
sim_freq                                 1000000000000                       # Frequency of simulated ticks
host_inst_rate                                  56451                       # Simulator instruction rate (inst/s)
host_op_rate                                    97908                       # Simulator op (including micro ops) rate (op/s)
host_tick_rate                               19503469                       # Simulator tick rate (ticks/s)
host_mem_usage                                2043212                       # Number of bytes of host memory used
host_seconds                                   818.37                       # Real time elapsed on the host
sim_insts                                    46197973                       # Number of instructions simulated
sim_ops                                      80125583                       # Number of ops (including micro ops) simulated
system.voltage_domain.voltage                       1                       # Voltage in Volts
system.clk_domain.clock                          1000                       # Clock period in ticks
system.mem_ctrls0.pwrStateResidencyTicks::UNDEFINED  15961123500                       # Cumulative time (in ticks) in various power states
system.mem_ctrls0.bytes_read::ruby.dir_cntrl0     10263232                       # Number of bytes read from this memory
system.mem_ctrls0.bytes_read::total          10263232                       # Number of bytes read from this memory
system.mem_ctrls0.bytes_written::ruby.dir_cntrl0      1153088                       # Number of bytes written to this memory
system.mem_ctrls0.bytes_written::total        1153088                       # Number of bytes written to this memory
system.mem_ctrls0.num_reads::ruby.dir_cntrl0       160363                       # Number of read requests responded to by this memory
system.mem_ctrls0.num_reads::total             160363                       # Number of read requests responded to by this memory
system.mem_ctrls0.num_writes::ruby.dir_cntrl0        18017                       # Number of write requests responded to by this memory
system.mem_ctrls0.num_writes::total             18017                       # Number of write requests responded to by this memory
system.mem_ctrls0.bw_read::ruby.dir_cntrl0    643014384                       # Total read bandwidth from this memory (bytes/s)
system.mem_ctrls0.bw_read::total            643014384                       # Total read bandwidth from this memory (bytes/s)
system.mem_ctrls0.bw_write::ruby.dir_cntrl0     72243536                       # Write bandwidth from this memory (bytes/s)
system.mem_ctrls0.bw_write::total            72243536                       # Write bandwidth from this memory (bytes/s)
system.mem_ctrls0.bw_total::ruby.dir_cntrl0    715257920                       # Total bandwidth to/from this memory (bytes/s)
system.mem_ctrls0.bw_total::total           715257920                       # Total bandwidth to/from this memory (bytes/s)
system.mem_ctrls0.readReqs                     160363                       # Number of read requests accepted
system.mem_ctrls0.avgNetLat                      0.00                       # Average network latency to DRAM controller
system.mem_ctrls0.writeReqs                     18017                       # Number of write requests accepted
system.mem_ctrls0.readBursts                   160363                       # Number of DRAM read bursts, including those serviced by the write queue
system.mem_ctrls0.writeBursts                   18017                       # Number of DRAM write bursts, including those merged in the write queue
system.mem_ctrls0.bytesReadDRAM              10262656                       # Total number of bytes read from DRAM
system.mem_ctrls0.bytesReadWrQ                    576                       # Total number of bytes read from write queue
system.mem_ctrls0.bytesWritten                1151552                       # Total number of bytes written to DRAM
system.mem_ctrls0.bytesReadSys               10263232                       # Total read bytes from the system interface side
system.mem_ctrls0.bytesWrittenSys             1153088                       # Total written bytes from the system interface side
system.mem_ctrls0.servicedByWrQ                     9                       # Number of DRAM read bursts serviced by the write queue
system.mem_ctrls0.mergedWrBursts                    0                       # Number of DRAM write bursts merged with an existing one
system.mem_ctrls0.neitherReadNorWriteReqs            0                       # Number of requests that are neither read nor write
system.mem_ctrls0.perBankRdBursts::0            10357                       # Per bank write bursts
system.mem_ctrls0.perBankRdBursts::1            10441                       # Per bank write bursts
system.mem_ctrls0.perBankRdBursts::2             9963                       # Per bank write bursts
system.mem_ctrls0.perBankRdBursts::3             9827                       # Per bank write bursts
system.mem_ctrls0.perBankRdBursts::4             9728                       # Per bank write bursts
system.mem_ctrls0.perBankRdBursts::5             9479                       # Per bank write bursts
system.mem_ctrls0.perBankRdBursts::6             9633                       # Per bank write bursts
system.mem_ctrls0.perBankRdBursts::7             9409                       # Per bank write bursts
system.mem_ctrls0.perBankRdBursts::8             9458                       # Per bank write bursts
system.mem_ctrls0.perBankRdBursts::9             9778                       # Per bank write bursts
system.mem_ctrls0.perBankRdBursts::10           10434                       # Per bank write bursts
system.mem_ctrls0.perBankRdBursts::11           10288                       # Per bank write bursts
system.mem_ctrls0.perBankRdBursts::12           10685                       # Per bank write bursts
system.mem_ctrls0.perBankRdBursts::13           10738                       # Per bank write bursts
system.mem_ctrls0.perBankRdBursts::14            9970                       # Per bank write bursts
system.mem_ctrls0.perBankRdBursts::15           10166                       # Per bank write bursts
system.mem_ctrls0.perBankWrBursts::0             1211                       # Per bank write bursts
system.mem_ctrls0.perBankWrBursts::1             1179                       # Per bank write bursts
system.mem_ctrls0.perBankWrBursts::2             1172                       # Per bank write bursts
system.mem_ctrls0.perBankWrBursts::3             1154                       # Per bank write bursts
system.mem_ctrls0.perBankWrBursts::4             1041                       # Per bank write bursts
system.mem_ctrls0.perBankWrBursts::5             1004                       # Per bank write bursts
system.mem_ctrls0.perBankWrBursts::6             1004                       # Per bank write bursts
system.mem_ctrls0.perBankWrBursts::7              924                       # Per bank write bursts
system.mem_ctrls0.perBankWrBursts::8              994                       # Per bank write bursts
system.mem_ctrls0.perBankWrBursts::9             1101                       # Per bank write bursts
system.mem_ctrls0.perBankWrBursts::10            1251                       # Per bank write bursts
system.mem_ctrls0.perBankWrBursts::11            1142                       # Per bank write bursts
system.mem_ctrls0.perBankWrBursts::12            1323                       # Per bank write bursts
system.mem_ctrls0.perBankWrBursts::13            1333                       # Per bank write bursts
system.mem_ctrls0.perBankWrBursts::14            1036                       # Per bank write bursts
system.mem_ctrls0.perBankWrBursts::15            1124                       # Per bank write bursts
system.mem_ctrls0.numRdRetry                        0                       # Number of times read queue was full causing retry
system.mem_ctrls0.numWrRetry                        0                       # Number of times write queue was full causing retry
system.mem_ctrls0.totGap                  15959878000                       # Total gap between requests
system.mem_ctrls0.readPktSize::0                    0                       # Read request sizes (log2)
system.mem_ctrls0.readPktSize::1                    0                       # Read request sizes (log2)
system.mem_ctrls0.readPktSize::2                    0                       # Read request sizes (log2)
system.mem_ctrls0.readPktSize::3                    0                       # Read request sizes (log2)
system.mem_ctrls0.readPktSize::4                    0                       # Read request sizes (log2)
system.mem_ctrls0.readPktSize::5                    0                       # Read request sizes (log2)
system.mem_ctrls0.readPktSize::6               160363                       # Read request sizes (log2)
system.mem_ctrls0.writePktSize::0                   0                       # Write request sizes (log2)
system.mem_ctrls0.writePktSize::1                   0                       # Write request sizes (log2)
system.mem_ctrls0.writePktSize::2                   0                       # Write request sizes (log2)
system.mem_ctrls0.writePktSize::3                   0                       # Write request sizes (log2)
system.mem_ctrls0.writePktSize::4                   0                       # Write request sizes (log2)
system.mem_ctrls0.writePktSize::5                   0                       # Write request sizes (log2)
system.mem_ctrls0.writePktSize::6               18017                       # Write request sizes (log2)
system.mem_ctrls0.rdQLenPdf::0                  79709                       # What read queue length does an incoming req see
system.mem_ctrls0.rdQLenPdf::1                  41563                       # What read queue length does an incoming req see
system.mem_ctrls0.rdQLenPdf::2                  20770                       # What read queue length does an incoming req see
system.mem_ctrls0.rdQLenPdf::3                  10265                       # What read queue length does an incoming req see
system.mem_ctrls0.rdQLenPdf::4                   4781                       # What read queue length does an incoming req see
system.mem_ctrls0.rdQLenPdf::5                   2062                       # What read queue length does an incoming req see
system.mem_ctrls0.rdQLenPdf::6                    793                       # What read queue length does an incoming req see
system.mem_ctrls0.rdQLenPdf::7                    305                       # What read queue length does an incoming req see
system.mem_ctrls0.rdQLenPdf::8                     89                       # What read queue length does an incoming req see
system.mem_ctrls0.rdQLenPdf::9                     16                       # What read queue length does an incoming req see
system.mem_ctrls0.rdQLenPdf::10                     1                       # What read queue length does an incoming req see
system.mem_ctrls0.rdQLenPdf::11                     0                       # What read queue length does an incoming req see
system.mem_ctrls0.rdQLenPdf::12                     0                       # What read queue length does an incoming req see
system.mem_ctrls0.rdQLenPdf::13                     0                       # What read queue length does an incoming req see
system.mem_ctrls0.rdQLenPdf::14                     0                       # What read queue length does an incoming req see
system.mem_ctrls0.rdQLenPdf::15                     0                       # What read queue length does an incoming req see
system.mem_ctrls0.rdQLenPdf::16                     0                       # What read queue length does an incoming req see
system.mem_ctrls0.rdQLenPdf::17                     0                       # What read queue length does an incoming req see
system.mem_ctrls0.rdQLenPdf::18                     0                       # What read queue length does an incoming req see
system.mem_ctrls0.rdQLenPdf::19                     0                       # What read queue length does an incoming req see
system.mem_ctrls0.rdQLenPdf::20                     0                       # What read queue length does an incoming req see
system.mem_ctrls0.rdQLenPdf::21                     0                       # What read queue length does an incoming req see
system.mem_ctrls0.rdQLenPdf::22                     0                       # What read queue length does an incoming req see
system.mem_ctrls0.rdQLenPdf::23                     0                       # What read queue length does an incoming req see
system.mem_ctrls0.rdQLenPdf::24                     0                       # What read queue length does an incoming req see
system.mem_ctrls0.rdQLenPdf::25                     0                       # What read queue length does an incoming req see
system.mem_ctrls0.rdQLenPdf::26                     0                       # What read queue length does an incoming req see
system.mem_ctrls0.rdQLenPdf::27                     0                       # What read queue length does an incoming req see
system.mem_ctrls0.rdQLenPdf::28                     0                       # What read queue length does an incoming req see
system.mem_ctrls0.rdQLenPdf::29                     0                       # What read queue length does an incoming req see
system.mem_ctrls0.rdQLenPdf::30                     0                       # What read queue length does an incoming req see
system.mem_ctrls0.rdQLenPdf::31                     0                       # What read queue length does an incoming req see
system.mem_ctrls0.wrQLenPdf::0                      1                       # What write queue length does an incoming req see
system.mem_ctrls0.wrQLenPdf::1                      1                       # What write queue length does an incoming req see
system.mem_ctrls0.wrQLenPdf::2                      1                       # What write queue length does an incoming req see
system.mem_ctrls0.wrQLenPdf::3                      1                       # What write queue length does an incoming req see
system.mem_ctrls0.wrQLenPdf::4                      1                       # What write queue length does an incoming req see
system.mem_ctrls0.wrQLenPdf::5                      1                       # What write queue length does an incoming req see
system.mem_ctrls0.wrQLenPdf::6                      1                       # What write queue length does an incoming req see
system.mem_ctrls0.wrQLenPdf::7                      1                       # What write queue length does an incoming req see
system.mem_ctrls0.wrQLenPdf::8                      1                       # What write queue length does an incoming req see
system.mem_ctrls0.wrQLenPdf::9                      1                       # What write queue length does an incoming req see
system.mem_ctrls0.wrQLenPdf::10                     1                       # What write queue length does an incoming req see
system.mem_ctrls0.wrQLenPdf::11                     1                       # What write queue length does an incoming req see
system.mem_ctrls0.wrQLenPdf::12                     1                       # What write queue length does an incoming req see
system.mem_ctrls0.wrQLenPdf::13                     1                       # What write queue length does an incoming req see
system.mem_ctrls0.wrQLenPdf::14                     1                       # What write queue length does an incoming req see
system.mem_ctrls0.wrQLenPdf::15                   302                       # What write queue length does an incoming req see
system.mem_ctrls0.wrQLenPdf::16                   351                       # What write queue length does an incoming req see
system.mem_ctrls0.wrQLenPdf::17                   725                       # What write queue length does an incoming req see
system.mem_ctrls0.wrQLenPdf::18                  1011                       # What write queue length does an incoming req see
system.mem_ctrls0.wrQLenPdf::19                  1116                       # What write queue length does an incoming req see
system.mem_ctrls0.wrQLenPdf::20                  1116                       # What write queue length does an incoming req see
system.mem_ctrls0.wrQLenPdf::21                  1120                       # What write queue length does an incoming req see
system.mem_ctrls0.wrQLenPdf::22                  1114                       # What write queue length does an incoming req see
system.mem_ctrls0.wrQLenPdf::23                  1114                       # What write queue length does an incoming req see
system.mem_ctrls0.wrQLenPdf::24                  1117                       # What write queue length does an incoming req see
system.mem_ctrls0.wrQLenPdf::25                  1112                       # What write queue length does an incoming req see
system.mem_ctrls0.wrQLenPdf::26                  1110                       # What write queue length does an incoming req see
system.mem_ctrls0.wrQLenPdf::27                  1110                       # What write queue length does an incoming req see
system.mem_ctrls0.wrQLenPdf::28                  1121                       # What write queue length does an incoming req see
system.mem_ctrls0.wrQLenPdf::29                  1108                       # What write queue length does an incoming req see
system.mem_ctrls0.wrQLenPdf::30                  1110                       # What write queue length does an incoming req see
system.mem_ctrls0.wrQLenPdf::31                  1115                       # What write queue length does an incoming req see
system.mem_ctrls0.wrQLenPdf::32                  1099                       # What write queue length does an incoming req see
system.mem_ctrls0.wrQLenPdf::33                    26                       # What write queue length does an incoming req see
system.mem_ctrls0.wrQLenPdf::34                     3                       # What write queue length does an incoming req see
system.mem_ctrls0.wrQLenPdf::35                     2                       # What write queue length does an incoming req see
system.mem_ctrls0.wrQLenPdf::36                     0                       # What write queue length does an incoming req see
system.mem_ctrls0.wrQLenPdf::37                     0                       # What write queue length does an incoming req see
system.mem_ctrls0.wrQLenPdf::38                     0                       # What write queue length does an incoming req see
system.mem_ctrls0.wrQLenPdf::39                     0                       # What write queue length does an incoming req see
system.mem_ctrls0.wrQLenPdf::40                     0                       # What write queue length does an incoming req see
system.mem_ctrls0.wrQLenPdf::41                     0                       # What write queue length does an incoming req see
system.mem_ctrls0.wrQLenPdf::42                     0                       # What write queue length does an incoming req see
system.mem_ctrls0.wrQLenPdf::43                     0                       # What write queue length does an incoming req see
system.mem_ctrls0.wrQLenPdf::44                     0                       # What write queue length does an incoming req see
system.mem_ctrls0.wrQLenPdf::45                     0                       # What write queue length does an incoming req see
system.mem_ctrls0.wrQLenPdf::46                     0                       # What write queue length does an incoming req see
system.mem_ctrls0.wrQLenPdf::47                     0                       # What write queue length does an incoming req see
system.mem_ctrls0.wrQLenPdf::48                     0                       # What write queue length does an incoming req see
system.mem_ctrls0.wrQLenPdf::49                     0                       # What write queue length does an incoming req see
system.mem_ctrls0.wrQLenPdf::50                     0                       # What write queue length does an incoming req see
system.mem_ctrls0.wrQLenPdf::51                     0                       # What write queue length does an incoming req see
system.mem_ctrls0.wrQLenPdf::52                     0                       # What write queue length does an incoming req see
system.mem_ctrls0.wrQLenPdf::53                     0                       # What write queue length does an incoming req see
system.mem_ctrls0.wrQLenPdf::54                     0                       # What write queue length does an incoming req see
system.mem_ctrls0.wrQLenPdf::55                     0                       # What write queue length does an incoming req see
system.mem_ctrls0.wrQLenPdf::56                     0                       # What write queue length does an incoming req see
system.mem_ctrls0.wrQLenPdf::57                     0                       # What write queue length does an incoming req see
system.mem_ctrls0.wrQLenPdf::58                     0                       # What write queue length does an incoming req see
system.mem_ctrls0.wrQLenPdf::59                     0                       # What write queue length does an incoming req see
system.mem_ctrls0.wrQLenPdf::60                     0                       # What write queue length does an incoming req see
system.mem_ctrls0.wrQLenPdf::61                     0                       # What write queue length does an incoming req see
system.mem_ctrls0.wrQLenPdf::62                     0                       # What write queue length does an incoming req see
system.mem_ctrls0.wrQLenPdf::63                     0                       # What write queue length does an incoming req see
system.mem_ctrls0.bytesPerActivate::samples        96151                       # Bytes accessed per row activation
system.mem_ctrls0.bytesPerActivate::mean   118.707283                       # Bytes accessed per row activation
system.mem_ctrls0.bytesPerActivate::gmean    91.095902                       # Bytes accessed per row activation
system.mem_ctrls0.bytesPerActivate::stdev   125.948047                       # Bytes accessed per row activation
system.mem_ctrls0.bytesPerActivate::0-127        66129     68.78%     68.78% # Bytes accessed per row activation
system.mem_ctrls0.bytesPerActivate::128-255        19383     20.16%     88.94% # Bytes accessed per row activation
system.mem_ctrls0.bytesPerActivate::256-383         4314      4.49%     93.42% # Bytes accessed per row activation
system.mem_ctrls0.bytesPerActivate::384-511         2796      2.91%     96.33% # Bytes accessed per row activation
system.mem_ctrls0.bytesPerActivate::512-639         1753      1.82%     98.15% # Bytes accessed per row activation
system.mem_ctrls0.bytesPerActivate::640-767         1296      1.35%     99.50% # Bytes accessed per row activation
system.mem_ctrls0.bytesPerActivate::768-895          196      0.20%     99.70% # Bytes accessed per row activation
system.mem_ctrls0.bytesPerActivate::896-1023          112      0.12%     99.82% # Bytes accessed per row activation
system.mem_ctrls0.bytesPerActivate::1024-1151          172      0.18%    100.00% # Bytes accessed per row activation
system.mem_ctrls0.bytesPerActivate::total        96151                       # Bytes accessed per row activation
system.mem_ctrls0.rdPerTurnAround::samples         1082                       # Reads before turning the bus around for writes
system.mem_ctrls0.rdPerTurnAround::mean    148.191312                       # Reads before turning the bus around for writes
system.mem_ctrls0.rdPerTurnAround::gmean    52.792148                       # Reads before turning the bus around for writes
system.mem_ctrls0.rdPerTurnAround::stdev  1948.193438                       # Reads before turning the bus around for writes
system.mem_ctrls0.rdPerTurnAround::0-2047         1081     99.91%     99.91% # Reads before turning the bus around for writes
system.mem_ctrls0.rdPerTurnAround::63488-65535            1      0.09%    100.00% # Reads before turning the bus around for writes
system.mem_ctrls0.rdPerTurnAround::total         1082                       # Reads before turning the bus around for writes
system.mem_ctrls0.wrPerTurnAround::samples         1082                       # Writes before turning the bus around for reads
system.mem_ctrls0.wrPerTurnAround::mean     16.629390                       # Writes before turning the bus around for reads
system.mem_ctrls0.wrPerTurnAround::gmean    16.604465                       # Writes before turning the bus around for reads
system.mem_ctrls0.wrPerTurnAround::stdev     0.924727                       # Writes before turning the bus around for reads
system.mem_ctrls0.wrPerTurnAround::16             729     67.38%     67.38% # Writes before turning the bus around for reads
system.mem_ctrls0.wrPerTurnAround::17              33      3.05%     70.43% # Writes before turning the bus around for reads
system.mem_ctrls0.wrPerTurnAround::18             312     28.84%     99.26% # Writes before turning the bus around for reads
system.mem_ctrls0.wrPerTurnAround::19               8      0.74%    100.00% # Writes before turning the bus around for reads
system.mem_ctrls0.wrPerTurnAround::total         1082                       # Writes before turning the bus around for reads
system.mem_ctrls0.totQLat                  4521118250                       # Total ticks spent queuing
system.mem_ctrls0.totMemAccLat             7527755750                       # Total ticks spent from burst creation until serviced by the DRAM
system.mem_ctrls0.totBusLat                 801770000                       # Total ticks spent in databus transfers
system.mem_ctrls0.avgQLat                    28194.61                       # Average queueing delay per DRAM burst
system.mem_ctrls0.avgBusLat                   5000.00                       # Average bus latency per DRAM burst
system.mem_ctrls0.avgMemAccLat               46944.61                       # Average memory access latency per DRAM burst
system.mem_ctrls0.avgRdBW                      642.98                       # Average DRAM read bandwidth in MiByte/s
system.mem_ctrls0.avgWrBW                       72.15                       # Average achieved write bandwidth in MiByte/s
system.mem_ctrls0.avgRdBWSys                   643.01                       # Average system read bandwidth in MiByte/s
system.mem_ctrls0.avgWrBWSys                    72.24                       # Average system write bandwidth in MiByte/s
system.mem_ctrls0.peakBW                     12800.00                       # Theoretical peak bandwidth in MiByte/s
system.mem_ctrls0.busUtil                        5.59                       # Data bus utilization in percentage
system.mem_ctrls0.busUtilRead                    5.02                       # Data bus utilization in percentage for reads
system.mem_ctrls0.busUtilWrite                   0.56                       # Data bus utilization in percentage for writes
system.mem_ctrls0.avgRdQLen                      1.56                       # Average read queue length when enqueuing
system.mem_ctrls0.avgWrQLen                     13.16                       # Average write queue length when enqueuing
system.mem_ctrls0.readRowHits                   78590                       # Number of row buffer hits during reads
system.mem_ctrls0.writeRowHits                   3603                       # Number of row buffer hits during writes
system.mem_ctrls0.readRowHitRate                49.01                       # Row buffer hit rate for reads
system.mem_ctrls0.writeRowHitRate               20.00                       # Row buffer hit rate for writes
system.mem_ctrls0.avgGap                     89471.23                       # Average gap between requests
system.mem_ctrls0.pageHitRate                   46.08                       # Row buffer hit rate, read and write combined
system.mem_ctrls0_0.actEnergy               335315820                       # Energy for activate commands per rank (pJ)
system.mem_ctrls0_0.preEnergy               178216995                       # Energy for precharge commands per rank (pJ)
system.mem_ctrls0_0.readEnergy              562896180                       # Energy for read commands per rank (pJ)
system.mem_ctrls0_0.writeEnergy              45356580                       # Energy for write commands per rank (pJ)
system.mem_ctrls0_0.refreshEnergy        1231123920.000000                       # Energy for refresh commands per rank (pJ)
system.mem_ctrls0_0.actBackEnergy          1471796430                       # Energy for active background per rank (pJ)
system.mem_ctrls0_0.preBackEnergy            35329920                       # Energy for precharge background per rank (pJ)
system.mem_ctrls0_0.actPowerDownEnergy     5122822560                       # Energy for active power-down per rank (pJ)
system.mem_ctrls0_0.prePowerDownEnergy      303589920                       # Energy for precharge power-down per rank (pJ)
system.mem_ctrls0_0.selfRefreshEnergy       167379510                       # Energy for self refresh per rank (pJ)
system.mem_ctrls0_0.totalEnergy            9454024215                       # Total energy per rank (pJ)
system.mem_ctrls0_0.averagePower           592.315702                       # Core power per rank (mW)
system.mem_ctrls0_0.totalIdleTime         12640198250                       # Total Idle time Per DRAM Rank
system.mem_ctrls0_0.memoryStateTime::IDLE     27348500                       # Time in different power states
system.mem_ctrls0_0.memoryStateTime::REF    521026000                       # Time in different power states
system.mem_ctrls0_0.memoryStateTime::SREF    616196750                       # Time in different power states
system.mem_ctrls0_0.memoryStateTime::PRE_PDN    790683000                       # Time in different power states
system.mem_ctrls0_0.memoryStateTime::ACT   2771421500                       # Time in different power states
system.mem_ctrls0_0.memoryStateTime::ACT_PDN  11234447750                       # Time in different power states
system.mem_ctrls0_1.actEnergy               351223740                       # Energy for activate commands per rank (pJ)
system.mem_ctrls0_1.preEnergy               186676050                       # Energy for precharge commands per rank (pJ)
system.mem_ctrls0_1.readEnergy              582031380                       # Energy for read commands per rank (pJ)
system.mem_ctrls0_1.writeEnergy              48566880                       # Energy for write commands per rank (pJ)
system.mem_ctrls0_1.refreshEnergy        1241572800.000000                       # Energy for refresh commands per rank (pJ)
system.mem_ctrls0_1.actBackEnergy          1508613870                       # Energy for active background per rank (pJ)
system.mem_ctrls0_1.preBackEnergy            33095040                       # Energy for precharge background per rank (pJ)
system.mem_ctrls0_1.actPowerDownEnergy     5157953370                       # Energy for active power-down per rank (pJ)
system.mem_ctrls0_1.prePowerDownEnergy      285347040                       # Energy for precharge power-down per rank (pJ)
system.mem_ctrls0_1.selfRefreshEnergy       144694800                       # Energy for self refresh per rank (pJ)
system.mem_ctrls0_1.totalEnergy            9540393480                       # Total energy per rank (pJ)
system.mem_ctrls0_1.averagePower           597.726929                       # Core power per rank (mW)
system.mem_ctrls0_1.totalIdleTime         12563871750                       # Total Idle time Per DRAM Rank
system.mem_ctrls0_1.memoryStateTime::IDLE     20991000                       # Time in different power states
system.mem_ctrls0_1.memoryStateTime::REF    525512000                       # Time in different power states
system.mem_ctrls0_1.memoryStateTime::SREF    510806250                       # Time in different power states
system.mem_ctrls0_1.memoryStateTime::PRE_PDN    742900500                       # Time in different power states
system.mem_ctrls0_1.memoryStateTime::ACT   2848928750                       # Time in different power states
system.mem_ctrls0_1.memoryStateTime::ACT_PDN  11311985000                       # Time in different power states
system.mem_ctrls1.pwrStateResidencyTicks::UNDEFINED  15961123500                       # Cumulative time (in ticks) in various power states
system.mem_ctrls1.bytes_read::ruby.dir_cntrl1     10231744                       # Number of bytes read from this memory
system.mem_ctrls1.bytes_read::total          10231744                       # Number of bytes read from this memory
system.mem_ctrls1.bytes_written::ruby.dir_cntrl1      1135808                       # Number of bytes written to this memory
system.mem_ctrls1.bytes_written::total        1135808                       # Number of bytes written to this memory
system.mem_ctrls1.num_reads::ruby.dir_cntrl1       159871                       # Number of read requests responded to by this memory
system.mem_ctrls1.num_reads::total             159871                       # Number of read requests responded to by this memory
system.mem_ctrls1.num_writes::ruby.dir_cntrl1        17747                       # Number of write requests responded to by this memory
system.mem_ctrls1.num_writes::total             17747                       # Number of write requests responded to by this memory
system.mem_ctrls1.bw_read::ruby.dir_cntrl1    641041591                       # Total read bandwidth from this memory (bytes/s)
system.mem_ctrls1.bw_read::total            641041591                       # Total read bandwidth from this memory (bytes/s)
system.mem_ctrls1.bw_write::ruby.dir_cntrl1     71160905                       # Write bandwidth from this memory (bytes/s)
system.mem_ctrls1.bw_write::total            71160905                       # Write bandwidth from this memory (bytes/s)
system.mem_ctrls1.bw_total::ruby.dir_cntrl1    712202496                       # Total bandwidth to/from this memory (bytes/s)
system.mem_ctrls1.bw_total::total           712202496                       # Total bandwidth to/from this memory (bytes/s)
system.mem_ctrls1.readReqs                     159871                       # Number of read requests accepted
system.mem_ctrls1.avgNetLat                      0.00                       # Average network latency to DRAM controller
system.mem_ctrls1.writeReqs                     17747                       # Number of write requests accepted
system.mem_ctrls1.readBursts                   159871                       # Number of DRAM read bursts, including those serviced by the write queue
system.mem_ctrls1.writeBursts                   17747                       # Number of DRAM write bursts, including those merged in the write queue
system.mem_ctrls1.bytesReadDRAM              10231232                       # Total number of bytes read from DRAM
system.mem_ctrls1.bytesReadWrQ                    512                       # Total number of bytes read from write queue
system.mem_ctrls1.bytesWritten                1134272                       # Total number of bytes written to DRAM
system.mem_ctrls1.bytesReadSys               10231744                       # Total read bytes from the system interface side
system.mem_ctrls1.bytesWrittenSys             1135808                       # Total written bytes from the system interface side
system.mem_ctrls1.servicedByWrQ                     8                       # Number of DRAM read bursts serviced by the write queue
system.mem_ctrls1.mergedWrBursts                    0                       # Number of DRAM write bursts merged with an existing one
system.mem_ctrls1.neitherReadNorWriteReqs            0                       # Number of requests that are neither read nor write
system.mem_ctrls1.perBankRdBursts::0            10260                       # Per bank write bursts
system.mem_ctrls1.perBankRdBursts::1            10366                       # Per bank write bursts
system.mem_ctrls1.perBankRdBursts::2             9952                       # Per bank write bursts
system.mem_ctrls1.perBankRdBursts::3             9783                       # Per bank write bursts
system.mem_ctrls1.perBankRdBursts::4             9696                       # Per bank write bursts
system.mem_ctrls1.perBankRdBursts::5             9414                       # Per bank write bursts
system.mem_ctrls1.perBankRdBursts::6             9667                       # Per bank write bursts
system.mem_ctrls1.perBankRdBursts::7             9383                       # Per bank write bursts
system.mem_ctrls1.perBankRdBursts::8             9438                       # Per bank write bursts
system.mem_ctrls1.perBankRdBursts::9             9747                       # Per bank write bursts
system.mem_ctrls1.perBankRdBursts::10           10414                       # Per bank write bursts
system.mem_ctrls1.perBankRdBursts::11           10276                       # Per bank write bursts
system.mem_ctrls1.perBankRdBursts::12           10676                       # Per bank write bursts
system.mem_ctrls1.perBankRdBursts::13           10707                       # Per bank write bursts
system.mem_ctrls1.perBankRdBursts::14            9940                       # Per bank write bursts
system.mem_ctrls1.perBankRdBursts::15           10144                       # Per bank write bursts
system.mem_ctrls1.perBankWrBursts::0             1153                       # Per bank write bursts
system.mem_ctrls1.perBankWrBursts::1             1150                       # Per bank write bursts
system.mem_ctrls1.perBankWrBursts::2             1150                       # Per bank write bursts
system.mem_ctrls1.perBankWrBursts::3             1101                       # Per bank write bursts
system.mem_ctrls1.perBankWrBursts::4             1032                       # Per bank write bursts
system.mem_ctrls1.perBankWrBursts::5              949                       # Per bank write bursts
system.mem_ctrls1.perBankWrBursts::6             1029                       # Per bank write bursts
system.mem_ctrls1.perBankWrBursts::7              904                       # Per bank write bursts
system.mem_ctrls1.perBankWrBursts::8              993                       # Per bank write bursts
system.mem_ctrls1.perBankWrBursts::9             1098                       # Per bank write bursts
system.mem_ctrls1.perBankWrBursts::10            1256                       # Per bank write bursts
system.mem_ctrls1.perBankWrBursts::11            1125                       # Per bank write bursts
system.mem_ctrls1.perBankWrBursts::12            1322                       # Per bank write bursts
system.mem_ctrls1.perBankWrBursts::13            1289                       # Per bank write bursts
system.mem_ctrls1.perBankWrBursts::14            1059                       # Per bank write bursts
system.mem_ctrls1.perBankWrBursts::15            1113                       # Per bank write bursts
system.mem_ctrls1.numRdRetry                        0                       # Number of times read queue was full causing retry
system.mem_ctrls1.numWrRetry                        0                       # Number of times write queue was full causing retry
system.mem_ctrls1.totGap                  15960407500                       # Total gap between requests
system.mem_ctrls1.readPktSize::0                    0                       # Read request sizes (log2)
system.mem_ctrls1.readPktSize::1                    0                       # Read request sizes (log2)
system.mem_ctrls1.readPktSize::2                    0                       # Read request sizes (log2)
system.mem_ctrls1.readPktSize::3                    0                       # Read request sizes (log2)
system.mem_ctrls1.readPktSize::4                    0                       # Read request sizes (log2)
system.mem_ctrls1.readPktSize::5                    0                       # Read request sizes (log2)
system.mem_ctrls1.readPktSize::6               159871                       # Read request sizes (log2)
system.mem_ctrls1.writePktSize::0                   0                       # Write request sizes (log2)
system.mem_ctrls1.writePktSize::1                   0                       # Write request sizes (log2)
system.mem_ctrls1.writePktSize::2                   0                       # Write request sizes (log2)
system.mem_ctrls1.writePktSize::3                   0                       # Write request sizes (log2)
system.mem_ctrls1.writePktSize::4                   0                       # Write request sizes (log2)
system.mem_ctrls1.writePktSize::5                   0                       # Write request sizes (log2)
system.mem_ctrls1.writePktSize::6               17747                       # Write request sizes (log2)
system.mem_ctrls1.rdQLenPdf::0                  80409                       # What read queue length does an incoming req see
system.mem_ctrls1.rdQLenPdf::1                  41526                       # What read queue length does an incoming req see
system.mem_ctrls1.rdQLenPdf::2                  20356                       # What read queue length does an incoming req see
system.mem_ctrls1.rdQLenPdf::3                   9888                       # What read queue length does an incoming req see
system.mem_ctrls1.rdQLenPdf::4                   4462                       # What read queue length does an incoming req see
system.mem_ctrls1.rdQLenPdf::5                   1889                       # What read queue length does an incoming req see
system.mem_ctrls1.rdQLenPdf::6                    844                       # What read queue length does an incoming req see
system.mem_ctrls1.rdQLenPdf::7                    321                       # What read queue length does an incoming req see
system.mem_ctrls1.rdQLenPdf::8                    110                       # What read queue length does an incoming req see
system.mem_ctrls1.rdQLenPdf::9                     36                       # What read queue length does an incoming req see
system.mem_ctrls1.rdQLenPdf::10                    16                       # What read queue length does an incoming req see
system.mem_ctrls1.rdQLenPdf::11                     5                       # What read queue length does an incoming req see
system.mem_ctrls1.rdQLenPdf::12                     1                       # What read queue length does an incoming req see
system.mem_ctrls1.rdQLenPdf::13                     0                       # What read queue length does an incoming req see
system.mem_ctrls1.rdQLenPdf::14                     0                       # What read queue length does an incoming req see
system.mem_ctrls1.rdQLenPdf::15                     0                       # What read queue length does an incoming req see
system.mem_ctrls1.rdQLenPdf::16                     0                       # What read queue length does an incoming req see
system.mem_ctrls1.rdQLenPdf::17                     0                       # What read queue length does an incoming req see
system.mem_ctrls1.rdQLenPdf::18                     0                       # What read queue length does an incoming req see
system.mem_ctrls1.rdQLenPdf::19                     0                       # What read queue length does an incoming req see
system.mem_ctrls1.rdQLenPdf::20                     0                       # What read queue length does an incoming req see
system.mem_ctrls1.rdQLenPdf::21                     0                       # What read queue length does an incoming req see
system.mem_ctrls1.rdQLenPdf::22                     0                       # What read queue length does an incoming req see
system.mem_ctrls1.rdQLenPdf::23                     0                       # What read queue length does an incoming req see
system.mem_ctrls1.rdQLenPdf::24                     0                       # What read queue length does an incoming req see
system.mem_ctrls1.rdQLenPdf::25                     0                       # What read queue length does an incoming req see
system.mem_ctrls1.rdQLenPdf::26                     0                       # What read queue length does an incoming req see
system.mem_ctrls1.rdQLenPdf::27                     0                       # What read queue length does an incoming req see
system.mem_ctrls1.rdQLenPdf::28                     0                       # What read queue length does an incoming req see
system.mem_ctrls1.rdQLenPdf::29                     0                       # What read queue length does an incoming req see
system.mem_ctrls1.rdQLenPdf::30                     0                       # What read queue length does an incoming req see
system.mem_ctrls1.rdQLenPdf::31                     0                       # What read queue length does an incoming req see
system.mem_ctrls1.wrQLenPdf::0                      1                       # What write queue length does an incoming req see
system.mem_ctrls1.wrQLenPdf::1                      1                       # What write queue length does an incoming req see
system.mem_ctrls1.wrQLenPdf::2                      1                       # What write queue length does an incoming req see
system.mem_ctrls1.wrQLenPdf::3                      1                       # What write queue length does an incoming req see
system.mem_ctrls1.wrQLenPdf::4                      1                       # What write queue length does an incoming req see
system.mem_ctrls1.wrQLenPdf::5                      1                       # What write queue length does an incoming req see
system.mem_ctrls1.wrQLenPdf::6                      1                       # What write queue length does an incoming req see
system.mem_ctrls1.wrQLenPdf::7                      1                       # What write queue length does an incoming req see
system.mem_ctrls1.wrQLenPdf::8                      1                       # What write queue length does an incoming req see
system.mem_ctrls1.wrQLenPdf::9                      1                       # What write queue length does an incoming req see
system.mem_ctrls1.wrQLenPdf::10                     1                       # What write queue length does an incoming req see
system.mem_ctrls1.wrQLenPdf::11                     1                       # What write queue length does an incoming req see
system.mem_ctrls1.wrQLenPdf::12                     1                       # What write queue length does an incoming req see
system.mem_ctrls1.wrQLenPdf::13                     1                       # What write queue length does an incoming req see
system.mem_ctrls1.wrQLenPdf::14                     1                       # What write queue length does an incoming req see
system.mem_ctrls1.wrQLenPdf::15                   291                       # What write queue length does an incoming req see
system.mem_ctrls1.wrQLenPdf::16                   332                       # What write queue length does an incoming req see
system.mem_ctrls1.wrQLenPdf::17                   724                       # What write queue length does an incoming req see
system.mem_ctrls1.wrQLenPdf::18                  1030                       # What write queue length does an incoming req see
system.mem_ctrls1.wrQLenPdf::19                  1096                       # What write queue length does an incoming req see
system.mem_ctrls1.wrQLenPdf::20                  1093                       # What write queue length does an incoming req see
system.mem_ctrls1.wrQLenPdf::21                  1105                       # What write queue length does an incoming req see
system.mem_ctrls1.wrQLenPdf::22                  1097                       # What write queue length does an incoming req see
system.mem_ctrls1.wrQLenPdf::23                  1094                       # What write queue length does an incoming req see
system.mem_ctrls1.wrQLenPdf::24                  1090                       # What write queue length does an incoming req see
system.mem_ctrls1.wrQLenPdf::25                  1095                       # What write queue length does an incoming req see
system.mem_ctrls1.wrQLenPdf::26                  1084                       # What write queue length does an incoming req see
system.mem_ctrls1.wrQLenPdf::27                  1104                       # What write queue length does an incoming req see
system.mem_ctrls1.wrQLenPdf::28                  1103                       # What write queue length does an incoming req see
system.mem_ctrls1.wrQLenPdf::29                  1088                       # What write queue length does an incoming req see
system.mem_ctrls1.wrQLenPdf::30                  1081                       # What write queue length does an incoming req see
system.mem_ctrls1.wrQLenPdf::31                  1101                       # What write queue length does an incoming req see
system.mem_ctrls1.wrQLenPdf::32                  1094                       # What write queue length does an incoming req see
system.mem_ctrls1.wrQLenPdf::33                    26                       # What write queue length does an incoming req see
system.mem_ctrls1.wrQLenPdf::34                     2                       # What write queue length does an incoming req see
system.mem_ctrls1.wrQLenPdf::35                     1                       # What write queue length does an incoming req see
system.mem_ctrls1.wrQLenPdf::36                     1                       # What write queue length does an incoming req see
system.mem_ctrls1.wrQLenPdf::37                     0                       # What write queue length does an incoming req see
system.mem_ctrls1.wrQLenPdf::38                     0                       # What write queue length does an incoming req see
system.mem_ctrls1.wrQLenPdf::39                     0                       # What write queue length does an incoming req see
system.mem_ctrls1.wrQLenPdf::40                     0                       # What write queue length does an incoming req see
system.mem_ctrls1.wrQLenPdf::41                     0                       # What write queue length does an incoming req see
system.mem_ctrls1.wrQLenPdf::42                     0                       # What write queue length does an incoming req see
system.mem_ctrls1.wrQLenPdf::43                     0                       # What write queue length does an incoming req see
system.mem_ctrls1.wrQLenPdf::44                     0                       # What write queue length does an incoming req see
system.mem_ctrls1.wrQLenPdf::45                     0                       # What write queue length does an incoming req see
system.mem_ctrls1.wrQLenPdf::46                     0                       # What write queue length does an incoming req see
system.mem_ctrls1.wrQLenPdf::47                     0                       # What write queue length does an incoming req see
system.mem_ctrls1.wrQLenPdf::48                     0                       # What write queue length does an incoming req see
system.mem_ctrls1.wrQLenPdf::49                     0                       # What write queue length does an incoming req see
system.mem_ctrls1.wrQLenPdf::50                     0                       # What write queue length does an incoming req see
system.mem_ctrls1.wrQLenPdf::51                     0                       # What write queue length does an incoming req see
system.mem_ctrls1.wrQLenPdf::52                     0                       # What write queue length does an incoming req see
system.mem_ctrls1.wrQLenPdf::53                     0                       # What write queue length does an incoming req see
system.mem_ctrls1.wrQLenPdf::54                     0                       # What write queue length does an incoming req see
system.mem_ctrls1.wrQLenPdf::55                     0                       # What write queue length does an incoming req see
system.mem_ctrls1.wrQLenPdf::56                     0                       # What write queue length does an incoming req see
system.mem_ctrls1.wrQLenPdf::57                     0                       # What write queue length does an incoming req see
system.mem_ctrls1.wrQLenPdf::58                     0                       # What write queue length does an incoming req see
system.mem_ctrls1.wrQLenPdf::59                     0                       # What write queue length does an incoming req see
system.mem_ctrls1.wrQLenPdf::60                     0                       # What write queue length does an incoming req see
system.mem_ctrls1.wrQLenPdf::61                     0                       # What write queue length does an incoming req see
system.mem_ctrls1.wrQLenPdf::62                     0                       # What write queue length does an incoming req see
system.mem_ctrls1.wrQLenPdf::63                     0                       # What write queue length does an incoming req see
system.mem_ctrls1.bytesPerActivate::samples        95421                       # Bytes accessed per row activation
system.mem_ctrls1.bytesPerActivate::mean   119.102336                       # Bytes accessed per row activation
system.mem_ctrls1.bytesPerActivate::gmean    91.170425                       # Bytes accessed per row activation
system.mem_ctrls1.bytesPerActivate::stdev   127.391836                       # Bytes accessed per row activation
system.mem_ctrls1.bytesPerActivate::0-127        65680     68.83%     68.83% # Bytes accessed per row activation
system.mem_ctrls1.bytesPerActivate::128-255        19037     19.95%     88.78% # Bytes accessed per row activation
system.mem_ctrls1.bytesPerActivate::256-383         4445      4.66%     93.44% # Bytes accessed per row activation
system.mem_ctrls1.bytesPerActivate::384-511         2787      2.92%     96.36% # Bytes accessed per row activation
system.mem_ctrls1.bytesPerActivate::512-639         1667      1.75%     98.11% # Bytes accessed per row activation
system.mem_ctrls1.bytesPerActivate::640-767         1244      1.30%     99.41% # Bytes accessed per row activation
system.mem_ctrls1.bytesPerActivate::768-895          215      0.23%     99.64% # Bytes accessed per row activation
system.mem_ctrls1.bytesPerActivate::896-1023          171      0.18%     99.82% # Bytes accessed per row activation
system.mem_ctrls1.bytesPerActivate::1024-1151          175      0.18%    100.00% # Bytes accessed per row activation
system.mem_ctrls1.bytesPerActivate::total        95421                       # Bytes accessed per row activation
system.mem_ctrls1.rdPerTurnAround::samples         1067                       # Reads before turning the bus around for writes
system.mem_ctrls1.rdPerTurnAround::mean    149.812559                       # Reads before turning the bus around for writes
system.mem_ctrls1.rdPerTurnAround::gmean    53.425300                       # Reads before turning the bus around for writes
system.mem_ctrls1.rdPerTurnAround::stdev  1950.285768                       # Reads before turning the bus around for writes
system.mem_ctrls1.rdPerTurnAround::0-2047         1066     99.91%     99.91% # Reads before turning the bus around for writes
system.mem_ctrls1.rdPerTurnAround::63488-65535            1      0.09%    100.00% # Reads before turning the bus around for writes
system.mem_ctrls1.rdPerTurnAround::total         1067                       # Reads before turning the bus around for writes
system.mem_ctrls1.wrPerTurnAround::samples         1067                       # Writes before turning the bus around for reads
system.mem_ctrls1.wrPerTurnAround::mean     16.610122                       # Writes before turning the bus around for reads
system.mem_ctrls1.wrPerTurnAround::gmean    16.585037                       # Writes before turning the bus around for reads
system.mem_ctrls1.wrPerTurnAround::stdev     0.928904                       # Writes before turning the bus around for reads
system.mem_ctrls1.wrPerTurnAround::16             734     68.79%     68.79% # Writes before turning the bus around for reads
system.mem_ctrls1.wrPerTurnAround::17              29      2.72%     71.51% # Writes before turning the bus around for reads
system.mem_ctrls1.wrPerTurnAround::18             291     27.27%     98.78% # Writes before turning the bus around for reads
system.mem_ctrls1.wrPerTurnAround::19              12      1.12%     99.91% # Writes before turning the bus around for reads
system.mem_ctrls1.wrPerTurnAround::20               1      0.09%    100.00% # Writes before turning the bus around for reads
system.mem_ctrls1.wrPerTurnAround::total         1067                       # Writes before turning the bus around for reads
system.mem_ctrls1.totQLat                  4493941500                       # Total ticks spent queuing
system.mem_ctrls1.totMemAccLat             7491372750                       # Total ticks spent from burst creation until serviced by the DRAM
system.mem_ctrls1.totBusLat                 799315000                       # Total ticks spent in databus transfers
system.mem_ctrls1.avgQLat                    28111.20                       # Average queueing delay per DRAM burst
system.mem_ctrls1.avgBusLat                   5000.00                       # Average bus latency per DRAM burst
system.mem_ctrls1.avgMemAccLat               46861.20                       # Average memory access latency per DRAM burst
system.mem_ctrls1.avgRdBW                      641.01                       # Average DRAM read bandwidth in MiByte/s
system.mem_ctrls1.avgWrBW                       71.06                       # Average achieved write bandwidth in MiByte/s
system.mem_ctrls1.avgRdBWSys                   641.04                       # Average system read bandwidth in MiByte/s
system.mem_ctrls1.avgWrBWSys                    71.16                       # Average system write bandwidth in MiByte/s
system.mem_ctrls1.peakBW                     12800.00                       # Theoretical peak bandwidth in MiByte/s
system.mem_ctrls1.busUtil                        5.56                       # Data bus utilization in percentage
system.mem_ctrls1.busUtilRead                    5.01                       # Data bus utilization in percentage for reads
system.mem_ctrls1.busUtilWrite                   0.56                       # Data bus utilization in percentage for writes
system.mem_ctrls1.avgRdQLen                      1.56                       # Average read queue length when enqueuing
system.mem_ctrls1.avgWrQLen                     13.28                       # Average write queue length when enqueuing
system.mem_ctrls1.readRowHits                   78581                       # Number of row buffer hits during reads
system.mem_ctrls1.writeRowHits                   3578                       # Number of row buffer hits during writes
system.mem_ctrls1.readRowHitRate                49.16                       # Row buffer hit rate for reads
system.mem_ctrls1.writeRowHitRate               20.16                       # Row buffer hit rate for writes
system.mem_ctrls1.avgGap                     89858.05                       # Average gap between requests
system.mem_ctrls1.pageHitRate                   46.26                       # Row buffer hit rate, read and write combined
system.mem_ctrls1_0.actEnergy               331653000                       # Energy for activate commands per rank (pJ)
system.mem_ctrls1_0.preEnergy               176262570                       # Energy for precharge commands per rank (pJ)
system.mem_ctrls1_0.readEnergy              560639940                       # Energy for read commands per rank (pJ)
system.mem_ctrls1_0.writeEnergy              44202960                       # Energy for write commands per rank (pJ)
system.mem_ctrls1_0.refreshEnergy        1242187440.000000                       # Energy for refresh commands per rank (pJ)
system.mem_ctrls1_0.actBackEnergy          1467687870                       # Energy for active background per rank (pJ)
system.mem_ctrls1_0.preBackEnergy            36205440                       # Energy for precharge background per rank (pJ)
system.mem_ctrls1_0.actPowerDownEnergy     5109930870                       # Energy for active power-down per rank (pJ)
system.mem_ctrls1_0.prePowerDownEnergy      344609280                       # Energy for precharge power-down per rank (pJ)
system.mem_ctrls1_0.selfRefreshEnergy       155723520                       # Energy for self refresh per rank (pJ)
system.mem_ctrls1_0.totalEnergy            9469461450                       # Total energy per rank (pJ)
system.mem_ctrls1_0.averagePower           593.282879                       # Core power per rank (mW)
system.mem_ctrls1_0.totalIdleTime         12647399750                       # Total Idle time Per DRAM Rank
system.mem_ctrls1_0.memoryStateTime::IDLE     30742000                       # Time in different power states
system.mem_ctrls1_0.memoryStateTime::REF    525766000                       # Time in different power states
system.mem_ctrls1_0.memoryStateTime::SREF    544021750                       # Time in different power states
system.mem_ctrls1_0.memoryStateTime::PRE_PDN    897226750                       # Time in different power states
system.mem_ctrls1_0.memoryStateTime::ACT   2756598000                       # Time in different power states
system.mem_ctrls1_0.memoryStateTime::ACT_PDN  11206769000                       # Time in different power states
system.mem_ctrls1_1.actEnergy               349695780                       # Energy for activate commands per rank (pJ)
system.mem_ctrls1_1.preEnergy               185860125                       # Energy for precharge commands per rank (pJ)
system.mem_ctrls1_1.readEnergy              580781880                       # Energy for read commands per rank (pJ)
system.mem_ctrls1_1.writeEnergy              48311100                       # Energy for write commands per rank (pJ)
system.mem_ctrls1_1.refreshEnergy        1242802080.000000                       # Energy for refresh commands per rank (pJ)
system.mem_ctrls1_1.actBackEnergy          1494040110                       # Energy for active background per rank (pJ)
system.mem_ctrls1_1.preBackEnergy            33386400                       # Energy for precharge background per rank (pJ)
system.mem_ctrls1_1.actPowerDownEnergy     5173649460                       # Energy for active power-down per rank (pJ)
system.mem_ctrls1_1.prePowerDownEnergy      292239840                       # Energy for precharge power-down per rank (pJ)
system.mem_ctrls1_1.selfRefreshEnergy       138944940                       # Energy for self refresh per rank (pJ)
system.mem_ctrls1_1.totalEnergy            9539957985                       # Total energy per rank (pJ)
system.mem_ctrls1_1.averagePower           597.699644                       # Core power per rank (mW)
system.mem_ctrls1_1.totalIdleTime         12597460250                       # Total Idle time Per DRAM Rank
system.mem_ctrls1_1.memoryStateTime::IDLE     21471750                       # Time in different power states
system.mem_ctrls1_1.memoryStateTime::REF    526032000                       # Time in different power states
system.mem_ctrls1_1.memoryStateTime::SREF    490463000                       # Time in different power states
system.mem_ctrls1_1.memoryStateTime::PRE_PDN    760806000                       # Time in different power states
system.mem_ctrls1_1.memoryStateTime::ACT   2815873500                       # Time in different power states
system.mem_ctrls1_1.memoryStateTime::ACT_PDN  11346477250                       # Time in different power states
system.mem_ctrls2.pwrStateResidencyTicks::UNDEFINED  15961123500                       # Cumulative time (in ticks) in various power states
system.mem_ctrls2.bytes_read::ruby.dir_cntrl2     10249216                       # Number of bytes read from this memory
system.mem_ctrls2.bytes_read::total          10249216                       # Number of bytes read from this memory
system.mem_ctrls2.bytes_written::ruby.dir_cntrl2      1146304                       # Number of bytes written to this memory
system.mem_ctrls2.bytes_written::total        1146304                       # Number of bytes written to this memory
system.mem_ctrls2.num_reads::ruby.dir_cntrl2       160144                       # Number of read requests responded to by this memory
system.mem_ctrls2.num_reads::total             160144                       # Number of read requests responded to by this memory
system.mem_ctrls2.num_writes::ruby.dir_cntrl2        17911                       # Number of write requests responded to by this memory
system.mem_ctrls2.num_writes::total             17911                       # Number of write requests responded to by this memory
system.mem_ctrls2.bw_read::ruby.dir_cntrl2    642136251                       # Total read bandwidth from this memory (bytes/s)
system.mem_ctrls2.bw_read::total            642136251                       # Total read bandwidth from this memory (bytes/s)
system.mem_ctrls2.bw_write::ruby.dir_cntrl2     71818503                       # Write bandwidth from this memory (bytes/s)
system.mem_ctrls2.bw_write::total            71818503                       # Write bandwidth from this memory (bytes/s)
system.mem_ctrls2.bw_total::ruby.dir_cntrl2    713954754                       # Total bandwidth to/from this memory (bytes/s)
system.mem_ctrls2.bw_total::total           713954754                       # Total bandwidth to/from this memory (bytes/s)
system.mem_ctrls2.readReqs                     160144                       # Number of read requests accepted
system.mem_ctrls2.avgNetLat                      0.00                       # Average network latency to DRAM controller
system.mem_ctrls2.writeReqs                     17911                       # Number of write requests accepted
system.mem_ctrls2.readBursts                   160144                       # Number of DRAM read bursts, including those serviced by the write queue
system.mem_ctrls2.writeBursts                   17911                       # Number of DRAM write bursts, including those merged in the write queue
system.mem_ctrls2.bytesReadDRAM              10248960                       # Total number of bytes read from DRAM
system.mem_ctrls2.bytesReadWrQ                    256                       # Total number of bytes read from write queue
system.mem_ctrls2.bytesWritten                1144512                       # Total number of bytes written to DRAM
system.mem_ctrls2.bytesReadSys               10249216                       # Total read bytes from the system interface side
system.mem_ctrls2.bytesWrittenSys             1146304                       # Total written bytes from the system interface side
system.mem_ctrls2.servicedByWrQ                     4                       # Number of DRAM read bursts serviced by the write queue
system.mem_ctrls2.mergedWrBursts                    0                       # Number of DRAM write bursts merged with an existing one
system.mem_ctrls2.neitherReadNorWriteReqs            0                       # Number of requests that are neither read nor write
system.mem_ctrls2.perBankRdBursts::0            10270                       # Per bank write bursts
system.mem_ctrls2.perBankRdBursts::1            10386                       # Per bank write bursts
system.mem_ctrls2.perBankRdBursts::2             9956                       # Per bank write bursts
system.mem_ctrls2.perBankRdBursts::3             9791                       # Per bank write bursts
system.mem_ctrls2.perBankRdBursts::4             9699                       # Per bank write bursts
system.mem_ctrls2.perBankRdBursts::5             9397                       # Per bank write bursts
system.mem_ctrls2.perBankRdBursts::6             9644                       # Per bank write bursts
system.mem_ctrls2.perBankRdBursts::7             9414                       # Per bank write bursts
system.mem_ctrls2.perBankRdBursts::8             9437                       # Per bank write bursts
system.mem_ctrls2.perBankRdBursts::9             9741                       # Per bank write bursts
system.mem_ctrls2.perBankRdBursts::10           10437                       # Per bank write bursts
system.mem_ctrls2.perBankRdBursts::11           10305                       # Per bank write bursts
system.mem_ctrls2.perBankRdBursts::12           10731                       # Per bank write bursts
system.mem_ctrls2.perBankRdBursts::13           10782                       # Per bank write bursts
system.mem_ctrls2.perBankRdBursts::14           10010                       # Per bank write bursts
system.mem_ctrls2.perBankRdBursts::15           10140                       # Per bank write bursts
system.mem_ctrls2.perBankWrBursts::0             1201                       # Per bank write bursts
system.mem_ctrls2.perBankWrBursts::1             1147                       # Per bank write bursts
system.mem_ctrls2.perBankWrBursts::2             1132                       # Per bank write bursts
system.mem_ctrls2.perBankWrBursts::3             1121                       # Per bank write bursts
system.mem_ctrls2.perBankWrBursts::4             1011                       # Per bank write bursts
system.mem_ctrls2.perBankWrBursts::5              979                       # Per bank write bursts
system.mem_ctrls2.perBankWrBursts::6              994                       # Per bank write bursts
system.mem_ctrls2.perBankWrBursts::7              926                       # Per bank write bursts
system.mem_ctrls2.perBankWrBursts::8             1009                       # Per bank write bursts
system.mem_ctrls2.perBankWrBursts::9             1081                       # Per bank write bursts
system.mem_ctrls2.perBankWrBursts::10            1270                       # Per bank write bursts
system.mem_ctrls2.perBankWrBursts::11            1142                       # Per bank write bursts
system.mem_ctrls2.perBankWrBursts::12            1347                       # Per bank write bursts
system.mem_ctrls2.perBankWrBursts::13            1345                       # Per bank write bursts
system.mem_ctrls2.perBankWrBursts::14            1052                       # Per bank write bursts
system.mem_ctrls2.perBankWrBursts::15            1126                       # Per bank write bursts
system.mem_ctrls2.numRdRetry                        0                       # Number of times read queue was full causing retry
system.mem_ctrls2.numWrRetry                        0                       # Number of times write queue was full causing retry
system.mem_ctrls2.totGap                  15960082500                       # Total gap between requests
system.mem_ctrls2.readPktSize::0                    0                       # Read request sizes (log2)
system.mem_ctrls2.readPktSize::1                    0                       # Read request sizes (log2)
system.mem_ctrls2.readPktSize::2                    0                       # Read request sizes (log2)
system.mem_ctrls2.readPktSize::3                    0                       # Read request sizes (log2)
system.mem_ctrls2.readPktSize::4                    0                       # Read request sizes (log2)
system.mem_ctrls2.readPktSize::5                    0                       # Read request sizes (log2)
system.mem_ctrls2.readPktSize::6               160144                       # Read request sizes (log2)
system.mem_ctrls2.writePktSize::0                   0                       # Write request sizes (log2)
system.mem_ctrls2.writePktSize::1                   0                       # Write request sizes (log2)
system.mem_ctrls2.writePktSize::2                   0                       # Write request sizes (log2)
system.mem_ctrls2.writePktSize::3                   0                       # Write request sizes (log2)
system.mem_ctrls2.writePktSize::4                   0                       # Write request sizes (log2)
system.mem_ctrls2.writePktSize::5                   0                       # Write request sizes (log2)
system.mem_ctrls2.writePktSize::6               17911                       # Write request sizes (log2)
system.mem_ctrls2.rdQLenPdf::0                  78969                       # What read queue length does an incoming req see
system.mem_ctrls2.rdQLenPdf::1                  41230                       # What read queue length does an incoming req see
system.mem_ctrls2.rdQLenPdf::2                  21020                       # What read queue length does an incoming req see
system.mem_ctrls2.rdQLenPdf::3                  10581                       # What read queue length does an incoming req see
system.mem_ctrls2.rdQLenPdf::4                   4948                       # What read queue length does an incoming req see
system.mem_ctrls2.rdQLenPdf::5                   2136                       # What read queue length does an incoming req see
system.mem_ctrls2.rdQLenPdf::6                    831                       # What read queue length does an incoming req see
system.mem_ctrls2.rdQLenPdf::7                    318                       # What read queue length does an incoming req see
system.mem_ctrls2.rdQLenPdf::8                     86                       # What read queue length does an incoming req see
system.mem_ctrls2.rdQLenPdf::9                     21                       # What read queue length does an incoming req see
system.mem_ctrls2.rdQLenPdf::10                     0                       # What read queue length does an incoming req see
system.mem_ctrls2.rdQLenPdf::11                     0                       # What read queue length does an incoming req see
system.mem_ctrls2.rdQLenPdf::12                     0                       # What read queue length does an incoming req see
system.mem_ctrls2.rdQLenPdf::13                     0                       # What read queue length does an incoming req see
system.mem_ctrls2.rdQLenPdf::14                     0                       # What read queue length does an incoming req see
system.mem_ctrls2.rdQLenPdf::15                     0                       # What read queue length does an incoming req see
system.mem_ctrls2.rdQLenPdf::16                     0                       # What read queue length does an incoming req see
system.mem_ctrls2.rdQLenPdf::17                     0                       # What read queue length does an incoming req see
system.mem_ctrls2.rdQLenPdf::18                     0                       # What read queue length does an incoming req see
system.mem_ctrls2.rdQLenPdf::19                     0                       # What read queue length does an incoming req see
system.mem_ctrls2.rdQLenPdf::20                     0                       # What read queue length does an incoming req see
system.mem_ctrls2.rdQLenPdf::21                     0                       # What read queue length does an incoming req see
system.mem_ctrls2.rdQLenPdf::22                     0                       # What read queue length does an incoming req see
system.mem_ctrls2.rdQLenPdf::23                     0                       # What read queue length does an incoming req see
system.mem_ctrls2.rdQLenPdf::24                     0                       # What read queue length does an incoming req see
system.mem_ctrls2.rdQLenPdf::25                     0                       # What read queue length does an incoming req see
system.mem_ctrls2.rdQLenPdf::26                     0                       # What read queue length does an incoming req see
system.mem_ctrls2.rdQLenPdf::27                     0                       # What read queue length does an incoming req see
system.mem_ctrls2.rdQLenPdf::28                     0                       # What read queue length does an incoming req see
system.mem_ctrls2.rdQLenPdf::29                     0                       # What read queue length does an incoming req see
system.mem_ctrls2.rdQLenPdf::30                     0                       # What read queue length does an incoming req see
system.mem_ctrls2.rdQLenPdf::31                     0                       # What read queue length does an incoming req see
system.mem_ctrls2.wrQLenPdf::0                      1                       # What write queue length does an incoming req see
system.mem_ctrls2.wrQLenPdf::1                      1                       # What write queue length does an incoming req see
system.mem_ctrls2.wrQLenPdf::2                      1                       # What write queue length does an incoming req see
system.mem_ctrls2.wrQLenPdf::3                      1                       # What write queue length does an incoming req see
system.mem_ctrls2.wrQLenPdf::4                      1                       # What write queue length does an incoming req see
system.mem_ctrls2.wrQLenPdf::5                      1                       # What write queue length does an incoming req see
system.mem_ctrls2.wrQLenPdf::6                      1                       # What write queue length does an incoming req see
system.mem_ctrls2.wrQLenPdf::7                      1                       # What write queue length does an incoming req see
system.mem_ctrls2.wrQLenPdf::8                      1                       # What write queue length does an incoming req see
system.mem_ctrls2.wrQLenPdf::9                      1                       # What write queue length does an incoming req see
system.mem_ctrls2.wrQLenPdf::10                     1                       # What write queue length does an incoming req see
system.mem_ctrls2.wrQLenPdf::11                     1                       # What write queue length does an incoming req see
system.mem_ctrls2.wrQLenPdf::12                     1                       # What write queue length does an incoming req see
system.mem_ctrls2.wrQLenPdf::13                     1                       # What write queue length does an incoming req see
system.mem_ctrls2.wrQLenPdf::14                     1                       # What write queue length does an incoming req see
system.mem_ctrls2.wrQLenPdf::15                   286                       # What write queue length does an incoming req see
system.mem_ctrls2.wrQLenPdf::16                   339                       # What write queue length does an incoming req see
system.mem_ctrls2.wrQLenPdf::17                   737                       # What write queue length does an incoming req see
system.mem_ctrls2.wrQLenPdf::18                   999                       # What write queue length does an incoming req see
system.mem_ctrls2.wrQLenPdf::19                  1097                       # What write queue length does an incoming req see
system.mem_ctrls2.wrQLenPdf::20                  1115                       # What write queue length does an incoming req see
system.mem_ctrls2.wrQLenPdf::21                  1120                       # What write queue length does an incoming req see
system.mem_ctrls2.wrQLenPdf::22                  1108                       # What write queue length does an incoming req see
system.mem_ctrls2.wrQLenPdf::23                  1115                       # What write queue length does an incoming req see
[...]
system.ruby.L2Cache_Controller.SS.L2_Replacement_clean |         633      6.28%      6.28% |         660      6.55%     12.83% |         681      6.76%     19.58% |         596      5.91%     25.50% |         644      6.39%     31.88% |         683      6.78%     38.66% |         662      6.57%     45.23% |         608      6.03%     51.26% |         674      6.69%     57.95% |         535      5.31%     63.25% |         562      5.58%     68.83% |         627      6.22%     75.05% |         611      6.06%     81.11% |         604      5.99%     87.10% |         687      6.82%     93.92% |         613      6.08%    100.00%
system.ruby.L2Cache_Controller.SS.L2_Replacement_clean::total        10080                      
system.ruby.L2Cache_Controller.M.L1_GET_INSTR |          14     25.00%     25.00% |           0      0.00%     25.00% |           0      0.00%     25.00% |           0      0.00%     25.00% |           0      0.00%     25.00% |           0      0.00%     25.00% |           0      0.00%     25.00% |           0      0.00%     25.00% |          14     25.00%     50.00% |          14     25.00%     75.00% |           0      0.00%     75.00% |           0      0.00%     75.00% |           0      0.00%     75.00% |           0      0.00%     75.00% |          14     25.00%    100.00% |           0      0.00%    100.00%
system.ruby.L2Cache_Controller.M.L1_GET_INSTR::total           56                      
system.ruby.L2Cache_Controller.M.L1_GETS |       10599      6.16%      6.16% |       10757      6.25%     12.41% |       10565      6.14%     18.55% |       10776      6.26%     24.81% |       10447      6.07%     30.88% |       10247      5.95%     36.83% |       10346      6.01%     42.84% |       10591      6.15%     48.99% |       10633      6.18%     55.17% |       10420      6.05%     61.23% |       11849      6.88%     68.11% |       11155      6.48%     74.59% |       11604      6.74%     81.33% |       11192      6.50%     87.84% |       10866      6.31%     94.15% |       10071      5.85%    100.00%
system.ruby.L2Cache_Controller.M.L1_GETS::total       172118                      
system.ruby.L2Cache_Controller.M.L1_GETX |        1306      5.89%      5.89% |        1385      6.25%     12.14% |        1399      6.31%     18.45% |        1402      6.33%     24.78% |        1335      6.02%     30.80% |        1258      5.68%     36.48% |        1198      5.40%     41.88% |        1381      6.23%     48.11% |        1286      5.80%     53.91% |        1338      6.04%     59.95% |        1906      8.60%     68.55% |        1268      5.72%     74.27% |        1862      8.40%     82.67% |        1198      5.40%     88.08% |        1285      5.80%     93.87% |        1358      6.13%    100.00%
system.ruby.L2Cache_Controller.M.L1_GETX::total        22165                      
system.ruby.L2Cache_Controller.M.L2_Replacement |        4529      6.37%      6.37% |        4439      6.25%     12.62% |        4385      6.17%     18.79% |        4479      6.30%     25.09% |        4359      6.13%     31.23% |        4357      6.13%     37.36% |        4449      6.26%     43.62% |        4393      6.18%     49.80% |        4475      6.30%     56.10% |        4332      6.10%     62.19% |        4398      6.19%     68.38% |        4428      6.23%     74.62% |        4512      6.35%     80.96% |        4497      6.33%     87.29% |        4542      6.39%     93.68% |        4488      6.32%    100.00%
system.ruby.L2Cache_Controller.M.L2_Replacement::total        71062                      
system.ruby.L2Cache_Controller.M.L2_Replacement_clean |        3025      6.23%      6.23% |        2968      6.11%     12.34% |        2910      5.99%     18.33% |        3051      6.28%     24.61% |        2966      6.11%     30.72% |        2997      6.17%     36.89% |        2995      6.17%     43.06% |        3072      6.33%     49.38% |        3129      6.44%     55.83% |        2952      6.08%     61.91% |        3054      6.29%     68.19% |        3049      6.28%     74.47% |        3115      6.41%     80.89% |        3127      6.44%     87.32% |        3094      6.37%     93.70% |        3062      6.30%    100.00%
system.ruby.L2Cache_Controller.M.L2_Replacement_clean::total        48566                      
system.ruby.L2Cache_Controller.MT.L1_GETS |          70      4.00%      4.00% |          70      4.00%      7.99% |          98      5.59%     13.58% |          98      5.59%     19.18% |          98      5.59%     24.77% |         140      7.99%     32.76% |         140      7.99%     40.75% |         140      7.99%     48.74% |         136      7.76%     56.51% |         136      7.76%     64.27% |         132      7.53%     71.80% |         130      7.42%     79.22% |         112      6.39%     85.62% |         112      6.39%     92.01% |          70      4.00%     96.00% |          70      4.00%    100.00%
system.ruby.L2Cache_Controller.MT.L1_GETS::total         1752                      
system.ruby.L2Cache_Controller.MT.L1_GETX |           0      0.00%      0.00% |           0      0.00%      0.00% |           0      0.00%      0.00% |           0      0.00%      0.00% |           0      0.00%      0.00% |           0      0.00%      0.00% |           0      0.00%      0.00% |           0      0.00%      0.00% |           2     15.38%     15.38% |           2     15.38%     30.77% |           4     30.77%     61.54% |           5     38.46%    100.00% |           0      0.00%    100.00% |           0      0.00%    100.00% |           0      0.00%    100.00% |           0      0.00%    100.00%
system.ruby.L2Cache_Controller.MT.L1_GETX::total           13                      
system.ruby.L2Cache_Controller.MT.L1_PUTX |       49730      6.23%      6.23% |       49800      6.24%     12.46% |       49420      6.19%     18.65% |       49996      6.26%     24.91% |       49319      6.18%     31.09% |       49207      6.16%     37.25% |       49338      6.18%     43.43% |       49775      6.23%     49.66% |       49842      6.24%     55.90% |       49365      6.18%     62.08% |       51519      6.45%     68.53% |       50231      6.29%     74.82% |       51485      6.45%     81.27% |       50357      6.31%     87.57% |       49981      6.26%     93.83% |       49250      6.17%    100.00%
system.ruby.L2Cache_Controller.MT.L1_PUTX::total       798615                      
system.ruby.L2Cache_Controller.MT.L2_Replacement |          11     10.68%     10.68% |           5      4.85%     15.53% |          11     10.68%     26.21% |           6      5.83%     32.04% |           7      6.80%     38.83% |           9      8.74%     47.57% |           8      7.77%     55.34% |           4      3.88%     59.22% |           9      8.74%     67.96% |           6      5.83%     73.79% |           8      7.77%     81.55% |           7      6.80%     88.35% |           9      8.74%     97.09% |           0      0.00%     97.09% |           3      2.91%    100.00% |           0      0.00%    100.00%
system.ruby.L2Cache_Controller.MT.L2_Replacement::total          103                      
system.ruby.L2Cache_Controller.MT.L2_Replacement_clean |          26      6.45%      6.45% |          20      4.96%     11.41% |          19      4.71%     16.13% |          17      4.22%     20.35% |          26      6.45%     26.80% |          30      7.44%     34.24% |          20      4.96%     39.21% |          31      7.69%     46.90% |          22      5.46%     52.36% |          23      5.71%     58.06% |          34      8.44%     66.50% |          20      4.96%     71.46% |          29      7.20%     78.66% |          26      6.45%     85.11% |          30      7.44%     92.56% |          30      7.44%    100.00%
system.ruby.L2Cache_Controller.MT.L2_Replacement_clean::total          403                      
system.ruby.L2Cache_Controller.M_I.Mem_Ack |        8225      6.31%      6.31% |        8093      6.21%     12.53% |        8007      6.15%     18.68% |        8152      6.26%     24.93% |        8002      6.14%     31.08% |        8079      6.20%     37.28% |        8137      6.25%     43.53% |        8113      6.23%     49.76% |        8312      6.38%     56.14% |        7851      6.03%     62.17% |        8060      6.19%     68.35% |        8133      6.24%     74.60% |        8279      6.36%     80.95% |        8255      6.34%     87.29% |        8357      6.42%     93.71% |        8195      6.29%    100.00%
system.ruby.L2Cache_Controller.M_I.Mem_Ack::total       130250                      
system.ruby.L2Cache_Controller.MT_I.WB_Data |           3      8.11%      8.11% |           3      8.11%     16.22% |           6     16.22%     32.43% |           2      5.41%     37.84% |           4     10.81%     48.65% |           3      8.11%     56.76% |           3      8.11%     64.86% |           1      2.70%     67.57% |           2      5.41%     72.97% |           3      8.11%     81.08% |           2      5.41%     86.49% |           3      8.11%     94.59% |           2      5.41%    100.00% |           0      0.00%    100.00% |           0      0.00%    100.00% |           0      0.00%    100.00%
system.ruby.L2Cache_Controller.MT_I.WB_Data::total           37                      
system.ruby.L2Cache_Controller.MT_I.Ack_all |           8     12.12%     12.12% |           2      3.03%     15.15% |           5      7.58%     22.73% |           4      6.06%     28.79% |           3      4.55%     33.33% |           6      9.09%     42.42% |           5      7.58%     50.00% |           3      4.55%     54.55% |           7     10.61%     65.15% |           3      4.55%     69.70% |           6      9.09%     78.79% |           4      6.06%     84.85% |           7     10.61%     95.45% |           0      0.00%     95.45% |           3      4.55%    100.00% |           0      0.00%    100.00%
system.ruby.L2Cache_Controller.MT_I.Ack_all::total           66                      
system.ruby.L2Cache_Controller.MCT_I.WB_Data |          25      6.53%      6.53% |          20      5.22%     11.75% |          19      4.96%     16.71% |          16      4.18%     20.89% |          25      6.53%     27.42% |          29      7.57%     34.99% |          19      4.96%     39.95% |          28      7.31%     47.26% |          21      5.48%     52.74% |          22      5.74%     58.49% |          31      8.09%     66.58% |          18      4.70%     71.28% |          28      7.31%     78.59% |          23      6.01%     84.60% |          29      7.57%     92.17% |          30      7.83%    100.00%
system.ruby.L2Cache_Controller.MCT_I.WB_Data::total          383                      
system.ruby.L2Cache_Controller.MCT_I.Ack_all |           1      5.00%      5.00% |           0      0.00%      5.00% |           0      0.00%      5.00% |           1      5.00%     10.00% |           1      5.00%     15.00% |           1      5.00%     20.00% |           1      5.00%     25.00% |           3     15.00%     40.00% |           1      5.00%     45.00% |           1      5.00%     50.00% |           3     15.00%     65.00% |           2     10.00%     75.00% |           1      5.00%     80.00% |           3     15.00%     95.00% |           1      5.00%    100.00% |           0      0.00%    100.00%
system.ruby.L2Cache_Controller.MCT_I.Ack_all::total           20                      
system.ruby.L2Cache_Controller.I_I.Ack_all |         633      6.28%      6.28% |         660      6.55%     12.83% |         681      6.76%     19.58% |         596      5.91%     25.50% |         644      6.39%     31.88% |         683      6.78%     38.66% |         662      6.57%     45.23% |         608      6.03%     51.26% |         674      6.69%     57.95% |         535      5.31%     63.25% |         562      5.58%     68.83% |         627      6.22%     75.05% |         611      6.06%     81.11% |         604      5.99%     87.10% |         687      6.82%     93.92% |         613      6.08%    100.00%
system.ruby.L2Cache_Controller.I_I.Ack_all::total        10080                      
system.ruby.L2Cache_Controller.S_I.Ack   |           1      2.78%      2.78% |           1      2.78%      5.56% |           1      2.78%      8.33% |           3      8.33%     16.67% |           0      0.00%     16.67% |           3      8.33%     25.00% |           3      8.33%     33.33% |           5     13.89%     47.22% |           3      8.33%     55.56% |           3      8.33%     63.89% |           4     11.11%     75.00% |           2      5.56%     80.56% |           3      8.33%     88.89% |           1      2.78%     91.67% |           1      2.78%     94.44% |           2      5.56%    100.00%
system.ruby.L2Cache_Controller.S_I.Ack::total           36                      
system.ruby.L2Cache_Controller.S_I.Ack_all |           1      2.78%      2.78% |           1      2.78%      5.56% |           1      2.78%      8.33% |           3      8.33%     16.67% |           0      0.00%     16.67% |           3      8.33%     25.00% |           3      8.33%     33.33% |           5     13.89%     47.22% |           3      8.33%     55.56% |           3      8.33%     63.89% |           4     11.11%     75.00% |           2      5.56%     80.56% |           3      8.33%     88.89% |           1      2.78%     91.67% |           1      2.78%     94.44% |           2      5.56%    100.00%
system.ruby.L2Cache_Controller.S_I.Ack_all::total           36                      
system.ruby.L2Cache_Controller.ISS.Mem_Data |       29305      6.27%      6.27% |       29059      6.21%     12.48% |       28826      6.16%     18.65% |       29231      6.25%     24.90% |       28950      6.19%     31.09% |       29153      6.23%     37.33% |       29225      6.25%     43.58% |       29240      6.25%     49.83% |       29401      6.29%     56.12% |       29124      6.23%     62.35% |       29241      6.25%     68.60% |       29328      6.27%     74.87% |       29517      6.31%     81.18% |       29425      6.29%     87.48% |       29279      6.26%     93.74% |       29273      6.26%    100.00%
system.ruby.L2Cache_Controller.ISS.Mem_Data::total       467577                      
system.ruby.L2Cache_Controller.IS.Mem_Data |        1370      6.45%      6.45% |        1368      6.44%     12.88% |        1497      7.04%     19.93% |        1291      6.07%     26.00% |        1355      6.38%     32.38% |        1337      6.29%     38.67% |        1284      6.04%     44.71% |        1296      6.10%     50.81% |        1362      6.41%     57.22% |        1167      5.49%     62.71% |        1249      5.88%     68.58% |        1269      5.97%     74.55% |        1237      5.82%     80.37% |        1303      6.13%     86.51% |        1521      7.16%     93.66% |        1347      6.34%    100.00%
system.ruby.L2Cache_Controller.IS.Mem_Data::total        21253                      
system.ruby.L2Cache_Controller.IM.Mem_Data |        9444      6.22%      6.22% |        9523      6.27%     12.50% |        9552      6.29%     18.79% |        9525      6.28%     25.07% |        9522      6.27%     31.34% |        9501      6.26%     37.60% |        9521      6.27%     43.88% |        9512      6.27%     50.14% |        9462      6.23%     56.38% |        9432      6.22%     62.59% |        9474      6.24%     68.84% |        9432      6.22%     75.05% |        9438      6.22%     81.27% |        9479      6.25%     87.52% |        9475      6.24%     93.76% |        9469      6.24%    100.00%
system.ruby.L2Cache_Controller.IM.Mem_Data::total       151761                      
system.ruby.L2Cache_Controller.SS_MB.Exclusive_Unblock |          42      3.94%      3.94% |          42      3.94%      7.89% |          70      6.57%     14.46% |          56      5.26%     19.72% |          56      5.26%     24.98% |          84      7.89%     32.86% |          84      7.89%     40.75% |          84      7.89%     48.64% |          82      7.70%     56.34% |          82      7.70%     64.04% |          80      7.51%     71.55% |          79      7.42%     78.97% |          70      6.57%     85.54% |          70      6.57%     92.11% |          42      3.94%     96.06% |          42      3.94%    100.00%
system.ruby.L2Cache_Controller.SS_MB.Exclusive_Unblock::total         1065                      
system.ruby.L2Cache_Controller.MT_MB.Exclusive_Unblock |       50654      6.23%      6.23% |       50724      6.23%     12.46% |       50342      6.19%     18.65% |       50934      6.26%     24.91% |       50254      6.18%     31.08% |       50159      6.16%     37.25% |       50290      6.18%     43.43% |       50724      6.23%     49.66% |       50784      6.24%     55.91% |       50316      6.18%     62.09% |       52474      6.45%     68.54% |       51188      6.29%     74.83% |       52421      6.44%     81.27% |       51294      6.30%     87.58% |       50905      6.26%     93.83% |       50171      6.17%    100.00%
system.ruby.L2Cache_Controller.MT_MB.Exclusive_Unblock::total       813634                      
system.ruby.L2Cache_Controller.MT_IIB.WB_Data |          69      3.97%      3.97% |          69      3.97%      7.94% |          98      5.64%     13.59% |          98      5.64%     19.23% |          96      5.53%     24.76% |         139      8.00%     32.76% |         138      7.94%     40.70% |         137      7.89%     48.59% |         135      7.77%     56.36% |         136      7.83%     64.19% |         130      7.48%     71.68% |         129      7.43%     79.10% |         112      6.45%     85.55% |         111      6.39%     91.94% |          70      4.03%     95.97% |          70      4.03%    100.00%
system.ruby.L2Cache_Controller.MT_IIB.WB_Data::total         1737                      
system.ruby.L2Cache_Controller.MT_IIB.Unblock |           1      6.67%      6.67% |           1      6.67%     13.33% |           0      0.00%     13.33% |           0      0.00%     13.33% |           2     13.33%     26.67% |           1      6.67%     33.33% |           2     13.33%     46.67% |           3     20.00%     66.67% |           1      6.67%     73.33% |           0      0.00%     73.33% |           2     13.33%     86.67% |           1      6.67%     93.33% |           0      0.00%     93.33% |           1      6.67%    100.00% |           0      0.00%    100.00% |           0      0.00%    100.00%
system.ruby.L2Cache_Controller.MT_IIB.Unblock::total           15                      
system.ruby.L2Cache_Controller.MT_IB.WB_Data |           1      6.67%      6.67% |           1      6.67%     13.33% |           0      0.00%     13.33% |           0      0.00%     13.33% |           2     13.33%     26.67% |           1      6.67%     33.33% |           2     13.33%     46.67% |           3     20.00%     66.67% |           1      6.67%     73.33% |           0      0.00%     73.33% |           2     13.33%     86.67% |           1      6.67%     93.33% |           0      0.00%     93.33% |           1      6.67%    100.00% |           0      0.00%    100.00% |           0      0.00%    100.00%
system.ruby.L2Cache_Controller.MT_IB.WB_Data::total           15                      
system.ruby.L2Cache_Controller.MT_SB.Unblock |          69      3.97%      3.97% |          69      3.97%      7.94% |          98      5.64%     13.59% |          98      5.64%     19.23% |          96      5.53%     24.76% |         139      8.00%     32.76% |         138      7.94%     40.70% |         137      7.89%     48.59% |         135      7.77%     56.36% |         136      7.83%     64.19% |         130      7.48%     71.68% |         129      7.43%     79.10% |         112      6.45%     85.55% |         111      6.39%     91.94% |          70      4.03%     95.97% |          70      4.03%    100.00%
system.ruby.L2Cache_Controller.MT_SB.Unblock::total         1737                      

---------- End Simulation Statistics   ----------
