
---------- Begin Simulation Statistics ----------
sim_seconds                                  0.023335                       # Number of seconds simulated
sim_ticks                                 23335184000                       # Number of ticks simulated
final_tick                                23335184000                       # Number of ticks from beginning of simulation (restored from checkpoints and never reset)
sim_freq                                 1000000000000                       # Frequency of simulated ticks
host_inst_rate                                  99739                       # Simulator instruction rate (inst/s)
host_op_rate                                   187000                       # Simulator op (including micro ops) rate (op/s)
host_tick_rate                               23540180                       # Simulator tick rate (ticks/s)
host_mem_usage                                1675592                       # Number of bytes of host memory used
host_seconds                                   991.29                       # Real time elapsed on the host
sim_insts                                    98870678                       # Number of instructions simulated
sim_ops                                     185372009                       # Number of ops (including micro ops) simulated
system.voltage_domain.voltage                       1                       # Voltage in Volts
system.clk_domain.clock                          1000                       # Clock period in ticks
system.mem_ctrls0.pwrStateResidencyTicks::UNDEFINED  23335184000                       # Cumulative time (in ticks) in various power states
system.mem_ctrls0.bytes_read::ruby.dir_cntrl0      3496192                       # Number of bytes read from this memory
system.mem_ctrls0.bytes_read::total           3496192                       # Number of bytes read from this memory
system.mem_ctrls0.bytes_written::ruby.dir_cntrl0           64                       # Number of bytes written to this memory
system.mem_ctrls0.bytes_written::total             64                       # Number of bytes written to this memory
system.mem_ctrls0.num_reads::ruby.dir_cntrl0        54628                       # Number of read requests responded to by this memory
system.mem_ctrls0.num_reads::total              54628                       # Number of read requests responded to by this memory
system.mem_ctrls0.num_writes::ruby.dir_cntrl0            1                       # Number of write requests responded to by this memory
system.mem_ctrls0.num_writes::total                 1                       # Number of write requests responded to by this memory
system.mem_ctrls0.bw_read::ruby.dir_cntrl0    149824917                       # Total read bandwidth from this memory (bytes/s)
system.mem_ctrls0.bw_read::total            149824917                       # Total read bandwidth from this memory (bytes/s)
system.mem_ctrls0.bw_write::ruby.dir_cntrl0         2743                       # Write bandwidth from this memory (bytes/s)
system.mem_ctrls0.bw_write::total                2743                       # Write bandwidth from this memory (bytes/s)
system.mem_ctrls0.bw_total::ruby.dir_cntrl0    149827659                       # Total bandwidth to/from this memory (bytes/s)
system.mem_ctrls0.bw_total::total           149827659                       # Total bandwidth to/from this memory (bytes/s)
system.mem_ctrls0.readReqs                      54628                       # Number of read requests accepted
system.mem_ctrls0.avgNetLat                      0.00                       # Average network latency to DRAM controller
system.mem_ctrls0.writeReqs                         1                       # Number of write requests accepted
system.mem_ctrls0.readBursts                    54628                       # Number of DRAM read bursts, including those serviced by the write queue
system.mem_ctrls0.writeBursts                       1                       # Number of DRAM write bursts, including those merged in the write queue
system.mem_ctrls0.bytesReadDRAM               3496192                       # Total number of bytes read from DRAM
system.mem_ctrls0.bytesReadWrQ                      0                       # Total number of bytes read from write queue
system.mem_ctrls0.bytesWritten                      0                       # Total number of bytes written to DRAM
system.mem_ctrls0.bytesReadSys                3496192                       # Total read bytes from the system interface side
system.mem_ctrls0.bytesWrittenSys                  64                       # Total written bytes from the system interface side
system.mem_ctrls0.servicedByWrQ                     0                       # Number of DRAM read bursts serviced by the write queue
system.mem_ctrls0.mergedWrBursts                    0                       # Number of DRAM write bursts merged with an existing one
system.mem_ctrls0.neitherReadNorWriteReqs            0                       # Number of requests that are neither read nor write
system.mem_ctrls0.perBankRdBursts::0             4128                       # Per bank write bursts
system.mem_ctrls0.perBankRdBursts::1             4052                       # Per bank write bursts
system.mem_ctrls0.perBankRdBursts::2             3564                       # Per bank write bursts
system.mem_ctrls0.perBankRdBursts::3             3478                       # Per bank write bursts
system.mem_ctrls0.perBankRdBursts::4             3676                       # Per bank write bursts
system.mem_ctrls0.perBankRdBursts::5             3381                       # Per bank write bursts
system.mem_ctrls0.perBankRdBursts::6             3360                       # Per bank write bursts
system.mem_ctrls0.perBankRdBursts::7             3269                       # Per bank write bursts
system.mem_ctrls0.perBankRdBursts::8             2667                       # Per bank write bursts
system.mem_ctrls0.perBankRdBursts::9             2704                       # Per bank write bursts
system.mem_ctrls0.perBankRdBursts::10            3135                       # Per bank write bursts
system.mem_ctrls0.perBankRdBursts::11            2891                       # Per bank write bursts
system.mem_ctrls0.perBankRdBursts::12            3456                       # Per bank write bursts
system.mem_ctrls0.perBankRdBursts::13            3483                       # Per bank write bursts
system.mem_ctrls0.perBankRdBursts::14            3478                       # Per bank write bursts
system.mem_ctrls0.perBankRdBursts::15            3906                       # Per bank write bursts
system.mem_ctrls0.perBankWrBursts::0                0                       # Per bank write bursts
system.mem_ctrls0.perBankWrBursts::1                0                       # Per bank write bursts
system.mem_ctrls0.perBankWrBursts::2                0                       # Per bank write bursts
system.mem_ctrls0.perBankWrBursts::3                0                       # Per bank write bursts
system.mem_ctrls0.perBankWrBursts::4                0                       # Per bank write bursts
system.mem_ctrls0.perBankWrBursts::5                0                       # Per bank write bursts
system.mem_ctrls0.perBankWrBursts::6                0                       # Per bank write bursts
system.mem_ctrls0.perBankWrBursts::7                0                       # Per bank write bursts
system.mem_ctrls0.perBankWrBursts::8                0                       # Per bank write bursts
system.mem_ctrls0.perBankWrBursts::9                0                       # Per bank write bursts
system.mem_ctrls0.perBankWrBursts::10               0                       # Per bank write bursts
system.mem_ctrls0.perBankWrBursts::11               0                       # Per bank write bursts
system.mem_ctrls0.perBankWrBursts::12               0                       # Per bank write bursts
system.mem_ctrls0.perBankWrBursts::13               0                       # Per bank write bursts
system.mem_ctrls0.perBankWrBursts::14               0                       # Per bank write bursts
system.mem_ctrls0.perBankWrBursts::15               0                       # Per bank write bursts
system.mem_ctrls0.numRdRetry                        0                       # Number of times read queue was full causing retry
system.mem_ctrls0.numWrRetry                        0                       # Number of times write queue was full causing retry
system.mem_ctrls0.totGap                  23334141500                       # Total gap between requests
system.mem_ctrls0.readPktSize::0                    0                       # Read request sizes (log2)
system.mem_ctrls0.readPktSize::1                    0                       # Read request sizes (log2)
system.mem_ctrls0.readPktSize::2                    0                       # Read request sizes (log2)
system.mem_ctrls0.readPktSize::3                    0                       # Read request sizes (log2)
system.mem_ctrls0.readPktSize::4                    0                       # Read request sizes (log2)
system.mem_ctrls0.readPktSize::5                    0                       # Read request sizes (log2)
system.mem_ctrls0.readPktSize::6                54628                       # Read request sizes (log2)
system.mem_ctrls0.writePktSize::0                   0                       # Write request sizes (log2)
system.mem_ctrls0.writePktSize::1                   0                       # Write request sizes (log2)
system.mem_ctrls0.writePktSize::2                   0                       # Write request sizes (log2)
system.mem_ctrls0.writePktSize::3                   0                       # Write request sizes (log2)
system.mem_ctrls0.writePktSize::4                   0                       # Write request sizes (log2)
system.mem_ctrls0.writePktSize::5                   0                       # Write request sizes (log2)
system.mem_ctrls0.writePktSize::6                   1                       # Write request sizes (log2)
system.mem_ctrls0.rdQLenPdf::0                  39049                       # What read queue length does an incoming req see
system.mem_ctrls0.rdQLenPdf::1                  10478                       # What read queue length does an incoming req see
system.mem_ctrls0.rdQLenPdf::2                   3387                       # What read queue length does an incoming req see
system.mem_ctrls0.rdQLenPdf::3                   1128                       # What read queue length does an incoming req see
system.mem_ctrls0.rdQLenPdf::4                    390                       # What read queue length does an incoming req see
system.mem_ctrls0.rdQLenPdf::5                    125                       # What read queue length does an incoming req see
system.mem_ctrls0.rdQLenPdf::6                     46                       # What read queue length does an incoming req see
system.mem_ctrls0.rdQLenPdf::7                     14                       # What read queue length does an incoming req see
system.mem_ctrls0.rdQLenPdf::8                      6                       # What read queue length does an incoming req see
system.mem_ctrls0.rdQLenPdf::9                      3                       # What read queue length does an incoming req see
system.mem_ctrls0.rdQLenPdf::10                     2                       # What read queue length does an incoming req see
system.mem_ctrls0.rdQLenPdf::11                     0                       # What read queue length does an incoming req see
system.mem_ctrls0.rdQLenPdf::12                     0                       # What read queue length does an incoming req see
system.mem_ctrls0.rdQLenPdf::13                     0                       # What read queue length does an incoming req see
system.mem_ctrls0.rdQLenPdf::14                     0                       # What read queue length does an incoming req see
system.mem_ctrls0.rdQLenPdf::15                     0                       # What read queue length does an incoming req see
system.mem_ctrls0.rdQLenPdf::16                     0                       # What read queue length does an incoming req see
system.mem_ctrls0.rdQLenPdf::17                     0                       # What read queue length does an incoming req see
system.mem_ctrls0.rdQLenPdf::18                     0                       # What read queue length does an incoming req see
system.mem_ctrls0.rdQLenPdf::19                     0                       # What read queue length does an incoming req see
system.mem_ctrls0.rdQLenPdf::20                     0                       # What read queue length does an incoming req see
system.mem_ctrls0.rdQLenPdf::21                     0                       # What read queue length does an incoming req see
system.mem_ctrls0.rdQLenPdf::22                     0                       # What read queue length does an incoming req see
system.mem_ctrls0.rdQLenPdf::23                     0                       # What read queue length does an incoming req see
system.mem_ctrls0.rdQLenPdf::24                     0                       # What read queue length does an incoming req see
system.mem_ctrls0.rdQLenPdf::25                     0                       # What read queue length does an incoming req see
system.mem_ctrls0.rdQLenPdf::26                     0                       # What read queue length does an incoming req see
system.mem_ctrls0.rdQLenPdf::27                     0                       # What read queue length does an incoming req see
system.mem_ctrls0.rdQLenPdf::28                     0                       # What read queue length does an incoming req see
system.mem_ctrls0.rdQLenPdf::29                     0                       # What read queue length does an incoming req see
system.mem_ctrls0.rdQLenPdf::30                     0                       # What read queue length does an incoming req see
system.mem_ctrls0.rdQLenPdf::31                     0                       # What read queue length does an incoming req see
system.mem_ctrls0.wrQLenPdf::0                      1                       # What write queue length does an incoming req see
system.mem_ctrls0.wrQLenPdf::1                      0                       # What write queue length does an incoming req see
system.mem_ctrls0.wrQLenPdf::2                      0                       # What write queue length does an incoming req see
system.mem_ctrls0.wrQLenPdf::3                      0                       # What write queue length does an incoming req see
system.mem_ctrls0.wrQLenPdf::4                      0                       # What write queue length does an incoming req see
system.mem_ctrls0.wrQLenPdf::5                      0                       # What write queue length does an incoming req see
system.mem_ctrls0.wrQLenPdf::6                      0                       # What write queue length does an incoming req see
system.mem_ctrls0.wrQLenPdf::7                      0                       # What write queue length does an incoming req see
system.mem_ctrls0.wrQLenPdf::8                      0                       # What write queue length does an incoming req see
system.mem_ctrls0.wrQLenPdf::9                      0                       # What write queue length does an incoming req see
system.mem_ctrls0.wrQLenPdf::10                     0                       # What write queue length does an incoming req see
system.mem_ctrls0.wrQLenPdf::11                     0                       # What write queue length does an incoming req see
system.mem_ctrls0.wrQLenPdf::12                     0                       # What write queue length does an incoming req see
system.mem_ctrls0.wrQLenPdf::13                     0                       # What write queue length does an incoming req see
system.mem_ctrls0.wrQLenPdf::14                     0                       # What write queue length does an incoming req see
system.mem_ctrls0.wrQLenPdf::15                     0                       # What write queue length does an incoming req see
system.mem_ctrls0.wrQLenPdf::16                     0                       # What write queue length does an incoming req see
system.mem_ctrls0.wrQLenPdf::17                     0                       # What write queue length does an incoming req see
system.mem_ctrls0.wrQLenPdf::18                     0                       # What write queue length does an incoming req see
system.mem_ctrls0.wrQLenPdf::19                     0                       # What write queue length does an incoming req see
system.mem_ctrls0.wrQLenPdf::20                     0                       # What write queue length does an incoming req see
system.mem_ctrls0.wrQLenPdf::21                     0                       # What write queue length does an incoming req see
system.mem_ctrls0.wrQLenPdf::22                     0                       # What write queue length does an incoming req see
system.mem_ctrls0.wrQLenPdf::23                     0                       # What write queue length does an incoming req see
system.mem_ctrls0.wrQLenPdf::24                     0                       # What write queue length does an incoming req see
system.mem_ctrls0.wrQLenPdf::25                     0                       # What write queue length does an incoming req see
system.mem_ctrls0.wrQLenPdf::26                     0                       # What write queue length does an incoming req see
system.mem_ctrls0.wrQLenPdf::27                     0                       # What write queue length does an incoming req see
system.mem_ctrls0.wrQLenPdf::28                     0                       # What write queue length does an incoming req see
system.mem_ctrls0.wrQLenPdf::29                     0                       # What write queue length does an incoming req see
system.mem_ctrls0.wrQLenPdf::30                     0                       # What write queue length does an incoming req see
system.mem_ctrls0.wrQLenPdf::31                     0                       # What write queue length does an incoming req see
system.mem_ctrls0.wrQLenPdf::32                     0                       # What write queue length does an incoming req see
system.mem_ctrls0.wrQLenPdf::33                     0                       # What write queue length does an incoming req see
system.mem_ctrls0.wrQLenPdf::34                     0                       # What write queue length does an incoming req see
system.mem_ctrls0.wrQLenPdf::35                     0                       # What write queue length does an incoming req see
system.mem_ctrls0.wrQLenPdf::36                     0                       # What write queue length does an incoming req see
system.mem_ctrls0.wrQLenPdf::37                     0                       # What write queue length does an incoming req see
system.mem_ctrls0.wrQLenPdf::38                     0                       # What write queue length does an incoming req see
system.mem_ctrls0.wrQLenPdf::39                     0                       # What write queue length does an incoming req see
system.mem_ctrls0.wrQLenPdf::40                     0                       # What write queue length does an incoming req see
system.mem_ctrls0.wrQLenPdf::41                     0                       # What write queue length does an incoming req see
system.mem_ctrls0.wrQLenPdf::42                     0                       # What write queue length does an incoming req see
system.mem_ctrls0.wrQLenPdf::43                     0                       # What write queue length does an incoming req see
system.mem_ctrls0.wrQLenPdf::44                     0                       # What write queue length does an incoming req see
system.mem_ctrls0.wrQLenPdf::45                     0                       # What write queue length does an incoming req see
system.mem_ctrls0.wrQLenPdf::46                     0                       # What write queue length does an incoming req see
system.mem_ctrls0.wrQLenPdf::47                     0                       # What write queue length does an incoming req see
system.mem_ctrls0.wrQLenPdf::48                     0                       # What write queue length does an incoming req see
system.mem_ctrls0.wrQLenPdf::49                     0                       # What write queue length does an incoming req see
system.mem_ctrls0.wrQLenPdf::50                     0                       # What write queue length does an incoming req see
system.mem_ctrls0.wrQLenPdf::51                     0                       # What write queue length does an incoming req see
system.mem_ctrls0.wrQLenPdf::52                     0                       # What write queue length does an incoming req see
system.mem_ctrls0.wrQLenPdf::53                     0                       # What write queue length does an incoming req see
system.mem_ctrls0.wrQLenPdf::54                     0                       # What write queue length does an incoming req see
system.mem_ctrls0.wrQLenPdf::55                     0                       # What write queue length does an incoming req see
system.mem_ctrls0.wrQLenPdf::56                     0                       # What write queue length does an incoming req see
system.mem_ctrls0.wrQLenPdf::57                     0                       # What write queue length does an incoming req see
system.mem_ctrls0.wrQLenPdf::58                     0                       # What write queue length does an incoming req see
system.mem_ctrls0.wrQLenPdf::59                     0                       # What write queue length does an incoming req see
system.mem_ctrls0.wrQLenPdf::60                     0                       # What write queue length does an incoming req see
system.mem_ctrls0.wrQLenPdf::61                     0                       # What write queue length does an incoming req see
system.mem_ctrls0.wrQLenPdf::62                     0                       # What write queue length does an incoming req see
system.mem_ctrls0.wrQLenPdf::63                     0                       # What write queue length does an incoming req see
system.mem_ctrls0.bytesPerActivate::samples        33758                       # Bytes accessed per row activation
system.mem_ctrls0.bytesPerActivate::mean   103.549262                       # Bytes accessed per row activation
system.mem_ctrls0.bytesPerActivate::gmean    80.018522                       # Bytes accessed per row activation
system.mem_ctrls0.bytesPerActivate::stdev   115.875863                       # Bytes accessed per row activation
system.mem_ctrls0.bytesPerActivate::0-127        28258     83.71%     83.71% # Bytes accessed per row activation
system.mem_ctrls0.bytesPerActivate::128-255         2753      8.16%     91.86% # Bytes accessed per row activation
system.mem_ctrls0.bytesPerActivate::256-383          431      1.28%     93.14% # Bytes accessed per row activation
system.mem_ctrls0.bytesPerActivate::384-511          241      0.71%     93.85% # Bytes accessed per row activation
system.mem_ctrls0.bytesPerActivate::512-639         1992      5.90%     99.75% # Bytes accessed per row activation
system.mem_ctrls0.bytesPerActivate::640-767           69      0.20%     99.96% # Bytes accessed per row activation
system.mem_ctrls0.bytesPerActivate::768-895            8      0.02%     99.98% # Bytes accessed per row activation
system.mem_ctrls0.bytesPerActivate::896-1023            1      0.00%     99.99% # Bytes accessed per row activation
system.mem_ctrls0.bytesPerActivate::1024-1151            5      0.01%    100.00% # Bytes accessed per row activation
system.mem_ctrls0.bytesPerActivate::total        33758                       # Bytes accessed per row activation
system.mem_ctrls0.totQLat                  1507431750                       # Total ticks spent queuing
system.mem_ctrls0.totMemAccLat             2531706750                       # Total ticks spent from burst creation until serviced by the DRAM
system.mem_ctrls0.totBusLat                 273140000                       # Total ticks spent in databus transfers
system.mem_ctrls0.avgQLat                    27594.49                       # Average queueing delay per DRAM burst
system.mem_ctrls0.avgBusLat                   5000.00                       # Average bus latency per DRAM burst
system.mem_ctrls0.avgMemAccLat               46344.49                       # Average memory access latency per DRAM burst
system.mem_ctrls0.avgRdBW                      149.82                       # Average DRAM read bandwidth in MiByte/s
system.mem_ctrls0.avgWrBW                        0.00                       # Average achieved write bandwidth in MiByte/s
system.mem_ctrls0.avgRdBWSys                   149.82                       # Average system read bandwidth in MiByte/s
system.mem_ctrls0.avgWrBWSys                     0.00                       # Average system write bandwidth in MiByte/s
system.mem_ctrls0.peakBW                     12800.00                       # Theoretical peak bandwidth in MiByte/s
system.mem_ctrls0.busUtil                        1.17                       # Data bus utilization in percentage
system.mem_ctrls0.busUtilRead                    1.17                       # Data bus utilization in percentage for reads
system.mem_ctrls0.busUtilWrite                   0.00                       # Data bus utilization in percentage for writes
system.mem_ctrls0.avgRdQLen                      1.15                       # Average read queue length when enqueuing
system.mem_ctrls0.avgWrQLen                      0.38                       # Average write queue length when enqueuing
system.mem_ctrls0.readRowHits                   20867                       # Number of row buffer hits during reads
system.mem_ctrls0.writeRowHits                      0                       # Number of row buffer hits during writes
system.mem_ctrls0.readRowHitRate                38.20                       # Row buffer hit rate for reads
system.mem_ctrls0.writeRowHitRate                0.00                       # Row buffer hit rate for writes
system.mem_ctrls0.avgGap                    427138.36                       # Average gap between requests
system.mem_ctrls0.pageHitRate                   38.20                       # Row buffer hit rate, read and write combined
system.mem_ctrls0_0.actEnergy               115546620                       # Energy for activate commands per rank (pJ)
system.mem_ctrls0_0.preEnergy                61410690                       # Energy for precharge commands per rank (pJ)
system.mem_ctrls0_0.readEnergy              206403120                       # Energy for read commands per rank (pJ)
system.mem_ctrls0_0.writeEnergy                     0                       # Energy for write commands per rank (pJ)
system.mem_ctrls0_0.refreshEnergy        1316558880.000000                       # Energy for refresh commands per rank (pJ)
system.mem_ctrls0_0.actBackEnergy           680648970                       # Energy for active background per rank (pJ)
system.mem_ctrls0_0.preBackEnergy            35418240                       # Energy for precharge background per rank (pJ)
system.mem_ctrls0_0.actPowerDownEnergy     6179977050                       # Energy for active power-down per rank (pJ)
system.mem_ctrls0_0.prePowerDownEnergy      421023360                       # Energy for precharge power-down per rank (pJ)
system.mem_ctrls0_0.selfRefreshEnergy      1738551480                       # Energy for self refresh per rank (pJ)
system.mem_ctrls0_0.totalEnergy           10755538410                       # Total energy per rank (pJ)
system.mem_ctrls0_0.averagePower           460.915069                       # Core power per rank (mW)
system.mem_ctrls0_0.totalIdleTime         21749150500                       # Total Idle time Per DRAM Rank
system.mem_ctrls0_0.memoryStateTime::IDLE     28365250                       # Time in different power states
system.mem_ctrls0_0.memoryStateTime::REF    557292000                       # Time in different power states
system.mem_ctrls0_0.memoryStateTime::SREF   7101301750                       # Time in different power states
system.mem_ctrls0_0.memoryStateTime::PRE_PDN   1096568750                       # Time in different power states
system.mem_ctrls0_0.memoryStateTime::ACT    998864000                       # Time in different power states
system.mem_ctrls0_0.memoryStateTime::ACT_PDN  13552792250                       # Time in different power states
system.mem_ctrls0_1.actEnergy               125506920                       # Energy for activate commands per rank (pJ)
system.mem_ctrls0_1.preEnergy                66700920                       # Energy for precharge commands per rank (pJ)
system.mem_ctrls0_1.readEnergy              183640800                       # Energy for read commands per rank (pJ)
system.mem_ctrls0_1.writeEnergy                     0                       # Energy for write commands per rank (pJ)
system.mem_ctrls0_1.refreshEnergy        1055951520.000000                       # Energy for refresh commands per rank (pJ)
system.mem_ctrls0_1.actBackEnergy           606841950                       # Energy for active background per rank (pJ)
system.mem_ctrls0_1.preBackEnergy            29117280                       # Energy for precharge background per rank (pJ)
system.mem_ctrls0_1.actPowerDownEnergy     4736019420                       # Energy for active power-down per rank (pJ)
system.mem_ctrls0_1.prePowerDownEnergy      406832160                       # Energy for precharge power-down per rank (pJ)
system.mem_ctrls0_1.selfRefreshEnergy      2556257220                       # Energy for self refresh per rank (pJ)
system.mem_ctrls0_1.totalEnergy            9766868190                       # Total energy per rank (pJ)
system.mem_ctrls0_1.averagePower           418.546851                       # Core power per rank (mW)
system.mem_ctrls0_1.totalIdleTime         21928056000                       # Total Idle time Per DRAM Rank
system.mem_ctrls0_1.memoryStateTime::IDLE     28462500                       # Time in different power states
system.mem_ctrls0_1.memoryStateTime::REF    447118000                       # Time in different power states
system.mem_ctrls0_1.memoryStateTime::SREF  10483100750                       # Time in different power states
system.mem_ctrls0_1.memoryStateTime::PRE_PDN   1059414250                       # Time in different power states
system.mem_ctrls0_1.memoryStateTime::ACT    930626250                       # Time in different power states
system.mem_ctrls0_1.memoryStateTime::ACT_PDN  10386462250                       # Time in different power states
system.mem_ctrls1.pwrStateResidencyTicks::UNDEFINED  23335184000                       # Cumulative time (in ticks) in various power states
system.mem_ctrls1.bytes_read::ruby.dir_cntrl1      3474688                       # Number of bytes read from this memory
system.mem_ctrls1.bytes_read::total           3474688                       # Number of bytes read from this memory
system.mem_ctrls1.num_reads::ruby.dir_cntrl1        54292                       # Number of read requests responded to by this memory
system.mem_ctrls1.num_reads::total              54292                       # Number of read requests responded to by this memory
system.mem_ctrls1.bw_read::ruby.dir_cntrl1    148903390                       # Total read bandwidth from this memory (bytes/s)
system.mem_ctrls1.bw_read::total            148903390                       # Total read bandwidth from this memory (bytes/s)
system.mem_ctrls1.bw_total::ruby.dir_cntrl1    148903390                       # Total bandwidth to/from this memory (bytes/s)
system.mem_ctrls1.bw_total::total           148903390                       # Total bandwidth to/from this memory (bytes/s)
system.mem_ctrls1.readReqs                      54292                       # Number of read requests accepted
system.mem_ctrls1.avgNetLat                      0.00                       # Average network latency to DRAM controller
system.mem_ctrls1.writeReqs                         0                       # Number of write requests accepted
system.mem_ctrls1.readBursts                    54292                       # Number of DRAM read bursts, including those serviced by the write queue
system.mem_ctrls1.writeBursts                       0                       # Number of DRAM write bursts, including those merged in the write queue
system.mem_ctrls1.bytesReadDRAM               3474688                       # Total number of bytes read from DRAM
system.mem_ctrls1.bytesReadWrQ                      0                       # Total number of bytes read from write queue
system.mem_ctrls1.bytesWritten                      0                       # Total number of bytes written to DRAM
system.mem_ctrls1.bytesReadSys                3474688                       # Total read bytes from the system interface side
system.mem_ctrls1.bytesWrittenSys                   0                       # Total written bytes from the system interface side
system.mem_ctrls1.servicedByWrQ                     0                       # Number of DRAM read bursts serviced by the write queue
system.mem_ctrls1.mergedWrBursts                    0                       # Number of DRAM write bursts merged with an existing one
system.mem_ctrls1.neitherReadNorWriteReqs            0                       # Number of requests that are neither read nor write
system.mem_ctrls1.perBankRdBursts::0             4062                       # Per bank write bursts
system.mem_ctrls1.perBankRdBursts::1             4019                       # Per bank write bursts
system.mem_ctrls1.perBankRdBursts::2             3609                       # Per bank write bursts
system.mem_ctrls1.perBankRdBursts::3             3407                       # Per bank write bursts
system.mem_ctrls1.perBankRdBursts::4             3630                       # Per bank write bursts
system.mem_ctrls1.perBankRdBursts::5             3358                       # Per bank write bursts
system.mem_ctrls1.perBankRdBursts::6             3337                       # Per bank write bursts
system.mem_ctrls1.perBankRdBursts::7             3272                       # Per bank write bursts
system.mem_ctrls1.perBankRdBursts::8             2652                       # Per bank write bursts
system.mem_ctrls1.perBankRdBursts::9             2659                       # Per bank write bursts
system.mem_ctrls1.perBankRdBursts::10            3123                       # Per bank write bursts
system.mem_ctrls1.perBankRdBursts::11            2845                       # Per bank write bursts
system.mem_ctrls1.perBankRdBursts::12            3475                       # Per bank write bursts
system.mem_ctrls1.perBankRdBursts::13            3488                       # Per bank write bursts
system.mem_ctrls1.perBankRdBursts::14            3471                       # Per bank write bursts
system.mem_ctrls1.perBankRdBursts::15            3885                       # Per bank write bursts
system.mem_ctrls1.perBankWrBursts::0                0                       # Per bank write bursts
system.mem_ctrls1.perBankWrBursts::1                0                       # Per bank write bursts
system.mem_ctrls1.perBankWrBursts::2                0                       # Per bank write bursts
system.mem_ctrls1.perBankWrBursts::3                0                       # Per bank write bursts
system.mem_ctrls1.perBankWrBursts::4                0                       # Per bank write bursts
system.mem_ctrls1.perBankWrBursts::5                0                       # Per bank write bursts
system.mem_ctrls1.perBankWrBursts::6                0                       # Per bank write bursts
system.mem_ctrls1.perBankWrBursts::7                0                       # Per bank write bursts
system.mem_ctrls1.perBankWrBursts::8                0                       # Per bank write bursts
system.mem_ctrls1.perBankWrBursts::9                0                       # Per bank write bursts
system.mem_ctrls1.perBankWrBursts::10               0                       # Per bank write bursts
system.mem_ctrls1.perBankWrBursts::11               0                       # Per bank write bursts
system.mem_ctrls1.perBankWrBursts::12               0                       # Per bank write bursts
system.mem_ctrls1.perBankWrBursts::13               0                       # Per bank write bursts
system.mem_ctrls1.perBankWrBursts::14               0                       # Per bank write bursts
system.mem_ctrls1.perBankWrBursts::15               0                       # Per bank write bursts
system.mem_ctrls1.numRdRetry                        0                       # Number of times read queue was full causing retry
system.mem_ctrls1.numWrRetry                        0                       # Number of times write queue was full causing retry
system.mem_ctrls1.totGap                  23334594000                       # Total gap between requests
system.mem_ctrls1.readPktSize::0                    0                       # Read request sizes (log2)
system.mem_ctrls1.readPktSize::1                    0                       # Read request sizes (log2)
system.mem_ctrls1.readPktSize::2                    0                       # Read request sizes (log2)
system.mem_ctrls1.readPktSize::3                    0                       # Read request sizes (log2)
system.mem_ctrls1.readPktSize::4                    0                       # Read request sizes (log2)
system.mem_ctrls1.readPktSize::5                    0                       # Read request sizes (log2)
system.mem_ctrls1.readPktSize::6                54292                       # Read request sizes (log2)
system.mem_ctrls1.writePktSize::0                   0                       # Write request sizes (log2)
system.mem_ctrls1.writePktSize::1                   0                       # Write request sizes (log2)
system.mem_ctrls1.writePktSize::2                   0                       # Write request sizes (log2)
system.mem_ctrls1.writePktSize::3                   0                       # Write request sizes (log2)
system.mem_ctrls1.writePktSize::4                   0                       # Write request sizes (log2)
system.mem_ctrls1.writePktSize::5                   0                       # Write request sizes (log2)
system.mem_ctrls1.writePktSize::6                   0                       # Write request sizes (log2)
system.mem_ctrls1.rdQLenPdf::0                  39016                       # What read queue length does an incoming req see
system.mem_ctrls1.rdQLenPdf::1                  10388                       # What read queue length does an incoming req see
system.mem_ctrls1.rdQLenPdf::2                   3134                       # What read queue length does an incoming req see
system.mem_ctrls1.rdQLenPdf::3                   1124                       # What read queue length does an incoming req see
system.mem_ctrls1.rdQLenPdf::4                    394                       # What read queue length does an incoming req see
system.mem_ctrls1.rdQLenPdf::5                    136                       # What read queue length does an incoming req see
system.mem_ctrls1.rdQLenPdf::6                     55                       # What read queue length does an incoming req see
system.mem_ctrls1.rdQLenPdf::7                     22                       # What read queue length does an incoming req see
system.mem_ctrls1.rdQLenPdf::8                     17                       # What read queue length does an incoming req see
system.mem_ctrls1.rdQLenPdf::9                      5                       # What read queue length does an incoming req see
system.mem_ctrls1.rdQLenPdf::10                     1                       # What read queue length does an incoming req see
system.mem_ctrls1.rdQLenPdf::11                     0                       # What read queue length does an incoming req see
system.mem_ctrls1.rdQLenPdf::12                     0                       # What read queue length does an incoming req see
system.mem_ctrls1.rdQLenPdf::13                     0                       # What read queue length does an incoming req see
system.mem_ctrls1.rdQLenPdf::14                     0                       # What read queue length does an incoming req see
system.mem_ctrls1.rdQLenPdf::15                     0                       # What read queue length does an incoming req see
system.mem_ctrls1.rdQLenPdf::16                     0                       # What read queue length does an incoming req see
system.mem_ctrls1.rdQLenPdf::17                     0                       # What read queue length does an incoming req see
system.mem_ctrls1.rdQLenPdf::18                     0                       # What read queue length does an incoming req see
system.mem_ctrls1.rdQLenPdf::19                     0                       # What read queue length does an incoming req see
system.mem_ctrls1.rdQLenPdf::20                     0                       # What read queue length does an incoming req see
system.mem_ctrls1.rdQLenPdf::21                     0                       # What read queue length does an incoming req see
system.mem_ctrls1.rdQLenPdf::22                     0                       # What read queue length does an incoming req see
system.mem_ctrls1.rdQLenPdf::23                     0                       # What read queue length does an incoming req see
system.mem_ctrls1.rdQLenPdf::24                     0                       # What read queue length does an incoming req see
system.mem_ctrls1.rdQLenPdf::25                     0                       # What read queue length does an incoming req see
system.mem_ctrls1.rdQLenPdf::26                     0                       # What read queue length does an incoming req see
system.mem_ctrls1.rdQLenPdf::27                     0                       # What read queue length does an incoming req see
system.mem_ctrls1.rdQLenPdf::28                     0                       # What read queue length does an incoming req see
system.mem_ctrls1.rdQLenPdf::29                     0                       # What read queue length does an incoming req see
system.mem_ctrls1.rdQLenPdf::30                     0                       # What read queue length does an incoming req see
system.mem_ctrls1.rdQLenPdf::31                     0                       # What read queue length does an incoming req see
system.mem_ctrls1.wrQLenPdf::0                      0                       # What write queue length does an incoming req see
system.mem_ctrls1.wrQLenPdf::1                      0                       # What write queue length does an incoming req see
system.mem_ctrls1.wrQLenPdf::2                      0                       # What write queue length does an incoming req see
system.mem_ctrls1.wrQLenPdf::3                      0                       # What write queue length does an incoming req see
system.mem_ctrls1.wrQLenPdf::4                      0                       # What write queue length does an incoming req see
system.mem_ctrls1.wrQLenPdf::5                      0                       # What write queue length does an incoming req see
system.mem_ctrls1.wrQLenPdf::6                      0                       # What write queue length does an incoming req see
system.mem_ctrls1.wrQLenPdf::7                      0                       # What write queue length does an incoming req see
system.mem_ctrls1.wrQLenPdf::8                      0                       # What write queue length does an incoming req see
system.mem_ctrls1.wrQLenPdf::9                      0                       # What write queue length does an incoming req see
system.mem_ctrls1.wrQLenPdf::10                     0                       # What write queue length does an incoming req see
system.mem_ctrls1.wrQLenPdf::11                     0                       # What write queue length does an incoming req see
system.mem_ctrls1.wrQLenPdf::12                     0                       # What write queue length does an incoming req see
system.mem_ctrls1.wrQLenPdf::13                     0                       # What write queue length does an incoming req see
system.mem_ctrls1.wrQLenPdf::14                     0                       # What write queue length does an incoming req see
system.mem_ctrls1.wrQLenPdf::15                     0                       # What write queue length does an incoming req see
system.mem_ctrls1.wrQLenPdf::16                     0                       # What write queue length does an incoming req see
system.mem_ctrls1.wrQLenPdf::17                     0                       # What write queue length does an incoming req see
system.mem_ctrls1.wrQLenPdf::18                     0                       # What write queue length does an incoming req see
system.mem_ctrls1.wrQLenPdf::19                     0                       # What write queue length does an incoming req see
system.mem_ctrls1.wrQLenPdf::20                     0                       # What write queue length does an incoming req see
system.mem_ctrls1.wrQLenPdf::21                     0                       # What write queue length does an incoming req see
system.mem_ctrls1.wrQLenPdf::22                     0                       # What write queue length does an incoming req see
system.mem_ctrls1.wrQLenPdf::23                     0                       # What write queue length does an incoming req see
system.mem_ctrls1.wrQLenPdf::24                     0                       # What write queue length does an incoming req see
system.mem_ctrls1.wrQLenPdf::25                     0                       # What write queue length does an incoming req see
system.mem_ctrls1.wrQLenPdf::26                     0                       # What write queue length does an incoming req see
system.mem_ctrls1.wrQLenPdf::27                     0                       # What write queue length does an incoming req see
system.mem_ctrls1.wrQLenPdf::28                     0                       # What write queue length does an incoming req see
system.mem_ctrls1.wrQLenPdf::29                     0                       # What write queue length does an incoming req see
system.mem_ctrls1.wrQLenPdf::30                     0                       # What write queue length does an incoming req see
system.mem_ctrls1.wrQLenPdf::31                     0                       # What write queue length does an incoming req see
system.mem_ctrls1.wrQLenPdf::32                     0                       # What write queue length does an incoming req see
system.mem_ctrls1.wrQLenPdf::33                     0                       # What write queue length does an incoming req see
system.mem_ctrls1.wrQLenPdf::34                     0                       # What write queue length does an incoming req see
system.mem_ctrls1.wrQLenPdf::35                     0                       # What write queue length does an incoming req see
system.mem_ctrls1.wrQLenPdf::36                     0                       # What write queue length does an incoming req see
system.mem_ctrls1.wrQLenPdf::37                     0                       # What write queue length does an incoming req see
system.mem_ctrls1.wrQLenPdf::38                     0                       # What write queue length does an incoming req see
system.mem_ctrls1.wrQLenPdf::39                     0                       # What write queue length does an incoming req see
system.mem_ctrls1.wrQLenPdf::40                     0                       # What write queue length does an incoming req see
system.mem_ctrls1.wrQLenPdf::41                     0                       # What write queue length does an incoming req see
system.mem_ctrls1.wrQLenPdf::42                     0                       # What write queue length does an incoming req see
system.mem_ctrls1.wrQLenPdf::43                     0                       # What write queue length does an incoming req see
system.mem_ctrls1.wrQLenPdf::44                     0                       # What write queue length does an incoming req see
system.mem_ctrls1.wrQLenPdf::45                     0                       # What write queue length does an incoming req see
system.mem_ctrls1.wrQLenPdf::46                     0                       # What write queue length does an incoming req see
system.mem_ctrls1.wrQLenPdf::47                     0                       # What write queue length does an incoming req see
system.mem_ctrls1.wrQLenPdf::48                     0                       # What write queue length does an incoming req see
system.mem_ctrls1.wrQLenPdf::49                     0                       # What write queue length does an incoming req see
system.mem_ctrls1.wrQLenPdf::50                     0                       # What write queue length does an incoming req see
system.mem_ctrls1.wrQLenPdf::51                     0                       # What write queue length does an incoming req see
system.mem_ctrls1.wrQLenPdf::52                     0                       # What write queue length does an incoming req see
system.mem_ctrls1.wrQLenPdf::53                     0                       # What write queue length does an incoming req see
system.mem_ctrls1.wrQLenPdf::54                     0                       # What write queue length does an incoming req see
system.mem_ctrls1.wrQLenPdf::55                     0                       # What write queue length does an incoming req see
system.mem_ctrls1.wrQLenPdf::56                     0                       # What write queue length does an incoming req see
system.mem_ctrls1.wrQLenPdf::57                     0                       # What write queue length does an incoming req see
system.mem_ctrls1.wrQLenPdf::58                     0                       # What write queue length does an incoming req see
system.mem_ctrls1.wrQLenPdf::59                     0                       # What write queue length does an incoming req see
system.mem_ctrls1.wrQLenPdf::60                     0                       # What write queue length does an incoming req see
system.mem_ctrls1.wrQLenPdf::61                     0                       # What write queue length does an incoming req see
system.mem_ctrls1.wrQLenPdf::62                     0                       # What write queue length does an incoming req see
system.mem_ctrls1.wrQLenPdf::63                     0                       # What write queue length does an incoming req see
system.mem_ctrls1.bytesPerActivate::samples        33322                       # Bytes accessed per row activation
system.mem_ctrls1.bytesPerActivate::mean   104.260729                       # Bytes accessed per row activation
system.mem_ctrls1.bytesPerActivate::gmean    80.309945                       # Bytes accessed per row activation
system.mem_ctrls1.bytesPerActivate::stdev   116.838722                       # Bytes accessed per row activation
system.mem_ctrls1.bytesPerActivate::0-127        27833     83.53%     83.53% # Bytes accessed per row activation
system.mem_ctrls1.bytesPerActivate::128-255         2737      8.21%     91.74% # Bytes accessed per row activation
system.mem_ctrls1.bytesPerActivate::256-383          416      1.25%     92.99% # Bytes accessed per row activation
system.mem_ctrls1.bytesPerActivate::384-511          250      0.75%     93.74% # Bytes accessed per row activation
system.mem_ctrls1.bytesPerActivate::512-639         2014      6.04%     99.78% # Bytes accessed per row activation
system.mem_ctrls1.bytesPerActivate::640-767           57      0.17%     99.95% # Bytes accessed per row activation
system.mem_ctrls1.bytesPerActivate::768-895            9      0.03%     99.98% # Bytes accessed per row activation
system.mem_ctrls1.bytesPerActivate::896-1023            1      0.00%     99.98% # Bytes accessed per row activation
system.mem_ctrls1.bytesPerActivate::1024-1151            5      0.02%    100.00% # Bytes accessed per row activation
system.mem_ctrls1.bytesPerActivate::total        33322                       # Bytes accessed per row activation
system.mem_ctrls1.totQLat                  1591791500                       # Total ticks spent queuing
system.mem_ctrls1.totMemAccLat             2609766500                       # Total ticks spent from burst creation until serviced by the DRAM
system.mem_ctrls1.totBusLat                 271460000                       # Total ticks spent in databus transfers
system.mem_ctrls1.avgQLat                    29319.08                       # Average queueing delay per DRAM burst
system.mem_ctrls1.avgBusLat                   5000.00                       # Average bus latency per DRAM burst
system.mem_ctrls1.avgMemAccLat               48069.08                       # Average memory access latency per DRAM burst
system.mem_ctrls1.avgRdBW                      148.90                       # Average DRAM read bandwidth in MiByte/s
system.mem_ctrls1.avgWrBW                        0.00                       # Average achieved write bandwidth in MiByte/s
system.mem_ctrls1.avgRdBWSys                   148.90                       # Average system read bandwidth in MiByte/s
system.mem_ctrls1.avgWrBWSys                     0.00                       # Average system write bandwidth in MiByte/s
system.mem_ctrls1.peakBW                     12800.00                       # Theoretical peak bandwidth in MiByte/s
system.mem_ctrls1.busUtil                        1.16                       # Data bus utilization in percentage
system.mem_ctrls1.busUtilRead                    1.16                       # Data bus utilization in percentage for reads
system.mem_ctrls1.busUtilWrite                   0.00                       # Data bus utilization in percentage for writes
system.mem_ctrls1.avgRdQLen                      1.15                       # Average read queue length when enqueuing
system.mem_ctrls1.avgWrQLen                      0.00                       # Average write queue length when enqueuing
system.mem_ctrls1.readRowHits                   20967                       # Number of row buffer hits during reads
system.mem_ctrls1.writeRowHits                      0                       # Number of row buffer hits during writes
system.mem_ctrls1.readRowHitRate                38.62                       # Row buffer hit rate for reads
system.mem_ctrls1.writeRowHitRate                 nan                       # Row buffer hit rate for writes
system.mem_ctrls1.avgGap                    429798.02                       # Average gap between requests
system.mem_ctrls1.pageHitRate                   38.62                       # Row buffer hit rate, read and write combined
system.mem_ctrls1_0.actEnergy               113540280                       # Energy for activate commands per rank (pJ)
system.mem_ctrls1_0.preEnergy                60340500                       # Energy for precharge commands per rank (pJ)
system.mem_ctrls1_0.readEnergy              204875160                       # Energy for read commands per rank (pJ)
system.mem_ctrls1_0.writeEnergy                     0                       # Energy for write commands per rank (pJ)
system.mem_ctrls1_0.refreshEnergy        1317788160.000000                       # Energy for refresh commands per rank (pJ)
system.mem_ctrls1_0.actBackEnergy           675230550                       # Energy for active background per rank (pJ)
system.mem_ctrls1_0.preBackEnergy            35789280                       # Energy for precharge background per rank (pJ)
system.mem_ctrls1_0.actPowerDownEnergy     6221235930                       # Energy for active power-down per rank (pJ)
system.mem_ctrls1_0.prePowerDownEnergy      390648480                       # Energy for precharge power-down per rank (pJ)
system.mem_ctrls1_0.selfRefreshEnergy      1739544960                       # Energy for self refresh per rank (pJ)
system.mem_ctrls1_0.totalEnergy           10758993300                       # Total energy per rank (pJ)
system.mem_ctrls1_0.averagePower           461.063124                       # Core power per rank (mW)
system.mem_ctrls1_0.totalIdleTime         21761336750                       # Total Idle time Per DRAM Rank
system.mem_ctrls1_0.memoryStateTime::IDLE     29396000                       # Time in different power states
system.mem_ctrls1_0.memoryStateTime::REF    557824000                       # Time in different power states
system.mem_ctrls1_0.memoryStateTime::SREF   7100844250                       # Time in different power states
system.mem_ctrls1_0.memoryStateTime::PRE_PDN   1017054750                       # Time in different power states
system.mem_ctrls1_0.memoryStateTime::ACT    986478750                       # Time in different power states
system.mem_ctrls1_0.memoryStateTime::ACT_PDN  13643586250                       # Time in different power states
system.mem_ctrls1_1.actEnergy               124400220                       # Energy for activate commands per rank (pJ)
system.mem_ctrls1_1.preEnergy                66116490                       # Energy for precharge commands per rank (pJ)
system.mem_ctrls1_1.readEnergy              182769720                       # Energy for read commands per rank (pJ)
system.mem_ctrls1_1.writeEnergy                     0                       # Energy for write commands per rank (pJ)
system.mem_ctrls1_1.refreshEnergy        1065785760.000000                       # Energy for refresh commands per rank (pJ)
system.mem_ctrls1_1.actBackEnergy           604682790                       # Energy for active background per rank (pJ)
system.mem_ctrls1_1.preBackEnergy            29751840                       # Energy for precharge background per rank (pJ)
system.mem_ctrls1_1.actPowerDownEnergy     4830275190                       # Energy for active power-down per rank (pJ)
system.mem_ctrls1_1.prePowerDownEnergy      363381600                       # Energy for precharge power-down per rank (pJ)
system.mem_ctrls1_1.selfRefreshEnergy      2537306520                       # Energy for self refresh per rank (pJ)
system.mem_ctrls1_1.totalEnergy            9804470130                       # Total energy per rank (pJ)
system.mem_ctrls1_1.averagePower           420.158234                       # Core power per rank (mW)
system.mem_ctrls1_1.totalIdleTime         21931500000                       # Total Idle time Per DRAM Rank
system.mem_ctrls1_1.memoryStateTime::IDLE     30114250                       # Time in different power states
system.mem_ctrls1_1.memoryStateTime::REF    451308000                       # Time in different power states
system.mem_ctrls1_1.memoryStateTime::SREF  10392629250                       # Time in different power states
system.mem_ctrls1_1.memoryStateTime::PRE_PDN    946157500                       # Time in different power states
system.mem_ctrls1_1.memoryStateTime::ACT    921853500                       # Time in different power states
system.mem_ctrls1_1.memoryStateTime::ACT_PDN  10593121500                       # Time in different power states
system.mem_ctrls2.pwrStateResidencyTicks::UNDEFINED  23335184000                       # Cumulative time (in ticks) in various power states
system.mem_ctrls2.bytes_read::ruby.dir_cntrl2      3490816                       # Number of bytes read from this memory
system.mem_ctrls2.bytes_read::total           3490816                       # Number of bytes read from this memory
system.mem_ctrls2.num_reads::ruby.dir_cntrl2        54544                       # Number of read requests responded to by this memory
system.mem_ctrls2.num_reads::total              54544                       # Number of read requests responded to by this memory
system.mem_ctrls2.bw_read::ruby.dir_cntrl2    149594535                       # Total read bandwidth from this memory (bytes/s)
system.mem_ctrls2.bw_read::total            149594535                       # Total read bandwidth from this memory (bytes/s)
system.mem_ctrls2.bw_total::ruby.dir_cntrl2    149594535                       # Total bandwidth to/from this memory (bytes/s)
system.mem_ctrls2.bw_total::total           149594535                       # Total bandwidth to/from this memory (bytes/s)
system.mem_ctrls2.readReqs                      54544                       # Number of read requests accepted
system.mem_ctrls2.avgNetLat                      0.00                       # Average network latency to DRAM controller
system.mem_ctrls2.writeReqs                         0                       # Number of write requests accepted
system.mem_ctrls2.readBursts                    54544                       # Number of DRAM read bursts, including those serviced by the write queue
system.mem_ctrls2.writeBursts                       0                       # Number of DRAM write bursts, including those merged in the write queue
system.mem_ctrls2.bytesReadDRAM               3490816                       # Total number of bytes read from DRAM
system.mem_ctrls2.bytesReadWrQ                      0                       # Total number of bytes read from write queue
system.mem_ctrls2.bytesWritten                      0                       # Total number of bytes written to DRAM
system.mem_ctrls2.bytesReadSys                3490816                       # Total read bytes from the system interface side
system.mem_ctrls2.bytesWrittenSys                   0                       # Total written bytes from the system interface side
system.mem_ctrls2.servicedByWrQ                     0                       # Number of DRAM read bursts serviced by the write queue
system.mem_ctrls2.mergedWrBursts                    0                       # Number of DRAM write bursts merged with an existing one
system.mem_ctrls2.neitherReadNorWriteReqs            0                       # Number of requests that are neither read nor write
system.mem_ctrls2.perBankRdBursts::0             4038                       # Per bank write bursts
system.mem_ctrls2.perBankRdBursts::1             4077                       # Per bank write bursts
system.mem_ctrls2.perBankRdBursts::2             3567                       # Per bank write bursts
system.mem_ctrls2.perBankRdBursts::3             3426                       # Per bank write bursts
system.mem_ctrls2.perBankRdBursts::4             3623                       # Per bank write bursts
system.mem_ctrls2.perBankRdBursts::5             3310                       # Per bank write bursts
system.mem_ctrls2.perBankRdBursts::6             3362                       # Per bank write bursts
system.mem_ctrls2.perBankRdBursts::7             3346                       # Per bank write bursts
system.mem_ctrls2.perBankRdBursts::8             2635                       # Per bank write bursts
system.mem_ctrls2.perBankRdBursts::9             2714                       # Per bank write bursts
system.mem_ctrls2.perBankRdBursts::10            3124                       # Per bank write bursts
system.mem_ctrls2.perBankRdBursts::11            2915                       # Per bank write bursts
system.mem_ctrls2.perBankRdBursts::12            3492                       # Per bank write bursts
system.mem_ctrls2.perBankRdBursts::13            3519                       # Per bank write bursts
system.mem_ctrls2.perBankRdBursts::14            3490                       # Per bank write bursts
system.mem_ctrls2.perBankRdBursts::15            3906                       # Per bank write bursts
system.mem_ctrls2.perBankWrBursts::0                0                       # Per bank write bursts
system.mem_ctrls2.perBankWrBursts::1                0                       # Per bank write bursts
system.mem_ctrls2.perBankWrBursts::2                0                       # Per bank write bursts
system.mem_ctrls2.perBankWrBursts::3                0                       # Per bank write bursts
system.mem_ctrls2.perBankWrBursts::4                0                       # Per bank write bursts
system.mem_ctrls2.perBankWrBursts::5                0                       # Per bank write bursts
system.mem_ctrls2.perBankWrBursts::6                0                       # Per bank write bursts
system.mem_ctrls2.perBankWrBursts::7                0                       # Per bank write bursts
system.mem_ctrls2.perBankWrBursts::8                0                       # Per bank write bursts
system.mem_ctrls2.perBankWrBursts::9                0                       # Per bank write bursts
system.mem_ctrls2.perBankWrBursts::10               0                       # Per bank write bursts
system.mem_ctrls2.perBankWrBursts::11               0                       # Per bank write bursts
system.mem_ctrls2.perBankWrBursts::12               0                       # Per bank write bursts
system.mem_ctrls2.perBankWrBursts::13               0                       # Per bank write bursts
system.mem_ctrls2.perBankWrBursts::14               0                       # Per bank write bursts
system.mem_ctrls2.perBankWrBursts::15               0                       # Per bank write bursts
system.mem_ctrls2.numRdRetry                        0                       # Number of times read queue was full causing retry
system.mem_ctrls2.numWrRetry                        0                       # Number of times write queue was full causing retry
system.mem_ctrls2.totGap                  23334192500                       # Total gap between requests
system.mem_ctrls2.readPktSize::0                    0                       # Read request sizes (log2)
system.mem_ctrls2.readPktSize::1                    0                       # Read request sizes (log2)
system.mem_ctrls2.readPktSize::2                    0                       # Read request sizes (log2)
system.mem_ctrls2.readPktSize::3                    0                       # Read request sizes (log2)
system.mem_ctrls2.readPktSize::4                    0                       # Read request sizes (log2)
system.mem_ctrls2.readPktSize::5                    0                       # Read request sizes (log2)
system.mem_ctrls2.readPktSize::6                54544                       # Read request sizes (log2)
system.mem_ctrls2.writePktSize::0                   0                       # Write request sizes (log2)
system.mem_ctrls2.writePktSize::1                   0                       # Write request sizes (log2)
system.mem_ctrls2.writePktSize::2                   0                       # Write request sizes (log2)
system.mem_ctrls2.writePktSize::3                   0                       # Write request sizes (log2)
system.mem_ctrls2.writePktSize::4                   0                       # Write request sizes (log2)
system.mem_ctrls2.writePktSize::5                   0                       # Write request sizes (log2)
system.mem_ctrls2.writePktSize::6                   0                       # Write request sizes (log2)
system.mem_ctrls2.rdQLenPdf::0                  38998                       # What read queue length does an incoming req see
system.mem_ctrls2.rdQLenPdf::1                  10412                       # What read queue length does an incoming req see
system.mem_ctrls2.rdQLenPdf::2                   3239                       # What read queue length does an incoming req see
system.mem_ctrls2.rdQLenPdf::3                   1203                       # What read queue length does an incoming req see
system.mem_ctrls2.rdQLenPdf::4                    432                       # What read queue length does an incoming req see
system.mem_ctrls2.rdQLenPdf::5                    164                       # What read queue length does an incoming req see
system.mem_ctrls2.rdQLenPdf::6                     48                       # What read queue length does an incoming req see
system.mem_ctrls2.rdQLenPdf::7                     27                       # What read queue length does an incoming req see
system.mem_ctrls2.rdQLenPdf::8                     12                       # What read queue length does an incoming req see
system.mem_ctrls2.rdQLenPdf::9                      5                       # What read queue length does an incoming req see
system.mem_ctrls2.rdQLenPdf::10                     4                       # What read queue length does an incoming req see
system.mem_ctrls2.rdQLenPdf::11                     0                       # What read queue length does an incoming req see
system.mem_ctrls2.rdQLenPdf::12                     0                       # What read queue length does an incoming req see
system.mem_ctrls2.rdQLenPdf::13                     0                       # What read queue length does an incoming req see
system.mem_ctrls2.rdQLenPdf::14                     0                       # What read queue length does an incoming req see
system.mem_ctrls2.rdQLenPdf::15                     0                       # What read queue length does an incoming req see
system.mem_ctrls2.rdQLenPdf::16                     0                       # What read queue length does an incoming req see
system.mem_ctrls2.rdQLenPdf::17                     0                       # What read queue length does an incoming req see
system.mem_ctrls2.rdQLenPdf::18                     0                       # What read queue length does an incoming req see
system.mem_ctrls2.rdQLenPdf::19                     0                       # What read queue length does an incoming req see
system.mem_ctrls2.rdQLenPdf::20                     0                       # What read queue length does an incoming req see
system.mem_ctrls2.rdQLenPdf::21                     0                       # What read queue length does an incoming req see
system.mem_ctrls2.rdQLenPdf::22                     0                       # What read queue length does an incoming req see
system.mem_ctrls2.rdQLenPdf::23                     0                       # What read queue length does an incoming req see
system.mem_ctrls2.rdQLenPdf::24                     0                       # What read queue length does an incoming req see
system.mem_ctrls2.rdQLenPdf::25                     0                       # What read queue length does an incoming req see
system.mem_ctrls2.rdQLenPdf::26                     0                       # What read queue length does an incoming req see
system.mem_ctrls2.rdQLenPdf::27                     0                       # What read queue length does an incoming req see
system.mem_ctrls2.rdQLenPdf::28                     0                       # What read queue length does an incoming req see
system.mem_ctrls2.rdQLenPdf::29                     0                       # What read queue length does an incoming req see
system.mem_ctrls2.rdQLenPdf::30                     0                       # What read queue length does an incoming req see
system.mem_ctrls2.rdQLenPdf::31                     0                       # What read queue length does an incoming req see
system.mem_ctrls2.wrQLenPdf::0                      0                       # What write queue length does an incoming req see
system.mem_ctrls2.wrQLenPdf::1                      0                       # What write queue length does an incoming req see
system.mem_ctrls2.wrQLenPdf::2                      0                       # What write queue length does an incoming req see
system.mem_ctrls2.wrQLenPdf::3                      0                       # What write queue length does an incoming req see
system.mem_ctrls2.wrQLenPdf::4                      0                       # What write queue length does an incoming req see
system.mem_ctrls2.wrQLenPdf::5                      0                       # What write queue length does an incoming req see
system.mem_ctrls2.wrQLenPdf::6                      0                       # What write queue length does an incoming req see
system.mem_ctrls2.wrQLenPdf::7                      0                       # What write queue length does an incoming req see
system.mem_ctrls2.wrQLenPdf::8                      0                       # What write queue length does an incoming req see
system.mem_ctrls2.wrQLenPdf::9                      0                       # What write queue length does an incoming req see
system.mem_ctrls2.wrQLenPdf::10                     0                       # What write queue length does an incoming req see
system.mem_ctrls2.wrQLenPdf::11                     0                       # What write queue length does an incoming req see
system.mem_ctrls2.wrQLenPdf::12                     0                       # What write queue length does an incoming req see
system.mem_ctrls2.wrQLenPdf::13                     0                       # What write queue length does an incoming req see
system.mem_ctrls2.wrQLenPdf::14                     0                       # What write queue length does an incoming req see
system.mem_ctrls2.wrQLenPdf::15                     0                       # What write queue length does an incoming req see
system.mem_ctrls2.wrQLenPdf::16                     0                       # What write queue length does an incoming req see
system.mem_ctrls2.wrQLenPdf::17                     0                       # What write queue length does an incoming req see
system.mem_ctrls2.wrQLenPdf::18                     0                       # What write queue length does an incoming req see
system.mem_ctrls2.wrQLenPdf::19                     0                       # What write queue length does an incoming req see
system.mem_ctrls2.wrQLenPdf::20                     0                       # What write queue length does an incoming req see
system.mem_ctrls2.wrQLenPdf::21                     0                       # What write queue length does an incoming req see
system.mem_ctrls2.wrQLenPdf::22                     0                       # What write queue length does an incoming req see
system.mem_ctrls2.wrQLenPdf::23                     0                       # What write queue length does an incoming req see
system.mem_ctrls2.wrQLenPdf::24                     0                       # What write queue length does an incoming req see
system.mem_ctrls2.wrQLenPdf::25                     0                       # What write queue length does an incoming req see
system.mem_ctrls2.wrQLenPdf::26                     0                       # What write queue length does an incoming req see
system.mem_ctrls2.wrQLenPdf::27                     0                       # What write queue length does an incoming req see
system.mem_ctrls2.wrQLenPdf::28                     0                       # What write queue length does an incoming req see
system.mem_ctrls2.wrQLenPdf::29                     0                       # What write queue length does an incoming req see
system.mem_ctrls2.wrQLenPdf::30                     0                       # What write queue length does an incoming req see
system.mem_ctrls2.wrQLenPdf::31                     0                       # What write queue length does an incoming req see
system.mem_ctrls2.wrQLenPdf::32                     0                       # What write queue length does an incoming req see
system.mem_ctrls2.wrQLenPdf::33                     0                       # What write queue length does an incoming req see
system.mem_ctrls2.wrQLenPdf::34                     0                       # What write queue length does an incoming req see
system.mem_ctrls2.wrQLenPdf::35                     0                       # What write queue length does an incoming req see
system.mem_ctrls2.wrQLenPdf::36                     0                       # What write queue length does an incoming req see
system.mem_ctrls2.wrQLenPdf::37                     0                       # What write queue length does an incoming req see
system.mem_ctrls2.wrQLenPdf::38                     0                       # What write queue length does an incoming req see
system.mem_ctrls2.wrQLenPdf::39                     0                       # What write queue length does an incoming req see
system.mem_ctrls2.wrQLenPdf::40                     0                       # What write queue length does an incoming req see
system.mem_ctrls2.wrQLenPdf::41                     0                       # What write queue length does an incoming req see
system.mem_ctrls2.wrQLenPdf::42                     0                       # What write queue length does an incoming req see
system.mem_ctrls2.wrQLenPdf::43                     0                       # What write queue length does an incoming req see
system.mem_ctrls2.wrQLenPdf::44                     0                       # What write queue length does an incoming req see
system.mem_ctrls2.wrQLenPdf::45                     0                       # What write queue length does an incoming req see
system.mem_ctrls2.wrQLenPdf::46                     0                       # What write queue length does an incoming req see
system.mem_ctrls2.wrQLenPdf::47                     0                       # What write queue length does an incoming req see
system.mem_ctrls2.wrQLenPdf::48                     0                       # What write queue length does an incoming req see
system.mem_ctrls2.wrQLenPdf::49                     0                       # What write queue length does an incoming req see
system.mem_ctrls2.wrQLenPdf::50                     0                       # What write queue length does an incoming req see
system.mem_ctrls2.wrQLenPdf::51                     0                       # What write queue length does an incoming req see
system.mem_ctrls2.wrQLenPdf::52                     0                       # What write queue length does an incoming req see
system.mem_ctrls2.wrQLenPdf::53                     0                       # What write queue length does an incoming req see
system.mem_ctrls2.wrQLenPdf::54                     0                       # What write queue length does an incoming req see
system.mem_ctrls2.wrQLenPdf::55                     0                       # What write queue length does an incoming req see
system.mem_ctrls2.wrQLenPdf::56                     0                       # What write queue length does an incoming req see
system.mem_ctrls2.wrQLenPdf::57                     0                       # What write queue length does an incoming req see
system.mem_ctrls2.wrQLenPdf::58                     0                       # What write queue length does an incoming req see
system.mem_ctrls2.wrQLenPdf::59                     0                       # What write queue length does an incoming req see
system.mem_ctrls2.wrQLenPdf::60                     0                       # What write queue length does an incoming req see
system.mem_ctrls2.wrQLenPdf::61                     0                       # What write queue length does an incoming req see
system.mem_ctrls2.wrQLenPdf::62                     0                       # What write queue length does an incoming req see
system.mem_ctrls2.wrQLenPdf::63                     0                       # What write queue length does an incoming req see
system.mem_ctrls2.bytesPerActivate::samples        33483                       # Bytes accessed per row activation
system.mem_ctrls2.bytesPerActivate::mean   104.242989                       # Bytes accessed per row activation
system.mem_ctrls2.bytesPerActivate::gmean    80.327808                       # Bytes accessed per row activation
system.mem_ctrls2.bytesPerActivate::stdev   116.858287                       # Bytes accessed per row activation
system.mem_ctrls2.bytesPerActivate::0-127        27953     83.48%     83.48% # Bytes accessed per row activation
[...]
system.ruby.L2Cache_Controller.Mem_Ack::total            2                      
system.ruby.L2Cache_Controller.WB_Data   |          56      6.38%      6.38% |          42      4.78%     11.16% |          70      7.97%     19.13% |          56      6.38%     25.51% |          56      6.38%     31.89% |          70      7.97%     39.86% |          56      6.38%     46.24% |          70      7.97%     54.21% |          53      6.04%     60.25% |          68      7.74%     68.00% |          50      5.69%     73.69% |          49      5.58%     79.27% |          42      4.78%     84.05% |          42      4.78%     88.84% |          56      6.38%     95.22% |          42      4.78%    100.00%
system.ruby.L2Cache_Controller.WB_Data::total          878                      
system.ruby.L2Cache_Controller.Ack_all   |           0      0.00%      0.00% |           0      0.00%      0.00% |           0      0.00%      0.00% |           0      0.00%      0.00% |           0      0.00%      0.00% |           0      0.00%      0.00% |           0      0.00%      0.00% |           0      0.00%      0.00% |           0      0.00%      0.00% |           0      0.00%      0.00% |           0      0.00%      0.00% |           0      0.00%      0.00% |           1    100.00%    100.00% |           0      0.00%    100.00% |           0      0.00%    100.00% |           0      0.00%    100.00%
system.ruby.L2Cache_Controller.Ack_all::total            1                      
system.ruby.L2Cache_Controller.Unblock   |          56      6.38%      6.38% |          42      4.78%     11.16% |          70      7.97%     19.13% |          56      6.38%     25.51% |          56      6.38%     31.89% |          70      7.97%     39.86% |          56      6.38%     46.24% |          70      7.97%     54.21% |          53      6.04%     60.25% |          68      7.74%     68.00% |          50      5.69%     73.69% |          49      5.58%     79.27% |          42      4.78%     84.05% |          42      4.78%     88.84% |          56      6.38%     95.22% |          42      4.78%    100.00%
system.ruby.L2Cache_Controller.Unblock::total          878                      
system.ruby.L2Cache_Controller.Exclusive_Unblock |       20906      6.21%      6.21% |       20848      6.19%     12.40% |       20694      6.14%     18.54% |       21348      6.34%     24.88% |       20767      6.17%     31.04% |       20721      6.15%     37.19% |       20886      6.20%     43.39% |       21314      6.33%     49.72% |       21159      6.28%     56.00% |       20847      6.19%     62.19% |       20947      6.22%     68.41% |       21404      6.35%     74.76% |       21462      6.37%     81.13% |       21511      6.39%     87.52% |       21291      6.32%     93.84% |       20747      6.16%    100.00%
system.ruby.L2Cache_Controller.Exclusive_Unblock::total       336852                      
system.ruby.L2Cache_Controller.NP.L1_GET_INSTR |        1288      6.30%      6.30% |        1316      6.44%     12.74% |        1442      7.05%     19.79% |        1232      6.03%     25.82% |        1288      6.30%     32.12% |        1274      6.23%     38.36% |        1246      6.10%     44.45% |        1246      6.10%     50.55% |        1302      6.37%     56.92% |        1106      5.41%     62.33% |        1204      5.89%     68.22% |        1232      6.03%     74.25% |        1204      5.89%     80.14% |        1274      6.23%     86.37% |        1470      7.19%     93.56% |        1316      6.44%    100.00%
system.ruby.L2Cache_Controller.NP.L1_GET_INSTR::total        20440                      
system.ruby.L2Cache_Controller.NP.L1_GETS |        6720      6.34%      6.34% |        6468      6.10%     12.44% |        6244      5.89%     18.33% |        6622      6.25%     24.57% |        6370      6.01%     30.58% |        6566      6.19%     36.77% |        6636      6.26%     43.03% |        6664      6.28%     49.31% |        6762      6.38%     55.69% |        6566      6.19%     61.88% |        6664      6.28%     68.17% |        6692      6.31%     74.48% |        6874      6.48%     80.96% |        6818      6.43%     87.39% |        6678      6.30%     93.69% |        6692      6.31%    100.00%
system.ruby.L2Cache_Controller.NP.L1_GETS::total       106036                      
system.ruby.L2Cache_Controller.NP.L1_GETX |        5684      6.21%      6.21% |        5768      6.30%     12.51% |        5796      6.33%     18.84% |        5754      6.29%     25.13% |        5768      6.30%     31.43% |        5740      6.27%     37.70% |        5754      6.29%     43.98% |        5740      6.27%     50.25% |        5698      6.22%     56.48% |        5684      6.21%     62.69% |        5698      6.22%     68.91% |        5670      6.19%     75.10% |        5670      6.19%     81.30% |        5712      6.24%     87.54% |        5712      6.24%     93.78% |        5698      6.22%    100.00%
system.ruby.L2Cache_Controller.NP.L1_GETX::total        91546                      
system.ruby.L2Cache_Controller.SS.L1_GET_INSTR |         143      6.37%      6.37% |          91      4.05%     10.42% |         180      8.01%     18.43% |          82      3.65%     22.08% |         428     19.06%     41.14% |         108      4.81%     45.95% |         240     10.69%     56.63% |         123      5.48%     62.11% |         158      7.03%     69.15% |          73      3.25%     72.40% |         125      5.57%     77.96% |         110      4.90%     82.86% |          67      2.98%     85.84% |          76      3.38%     89.23% |         153      6.81%     96.04% |          89      3.96%    100.00%
system.ruby.L2Cache_Controller.SS.L1_GET_INSTR::total         2246                      
system.ruby.L2Cache_Controller.SS.L1_GETS |          14      3.71%      3.71% |          14      3.71%      7.43% |          31      8.22%     15.65% |          28      7.43%     23.08% |          28      7.43%     30.50% |          28      7.43%     37.93% |          28      7.43%     45.36% |          28      7.43%     52.79% |          39     10.34%     63.13% |          40     10.61%     73.74% |          22      5.84%     79.58% |          21      5.57%     85.15% |          14      3.71%     88.86% |          14      3.71%     92.57% |          14      3.71%     96.29% |          14      3.71%    100.00%
system.ruby.L2Cache_Controller.SS.L1_GETS::total          377                      
system.ruby.L2Cache_Controller.SS.L1_UPGRADE |           0      0.00%      0.00% |           0      0.00%      0.00% |          14    100.00%    100.00% |           0      0.00%    100.00% |           0      0.00%    100.00% |           0      0.00%    100.00% |           0      0.00%    100.00% |           0      0.00%    100.00% |           0      0.00%    100.00% |           0      0.00%    100.00% |           0      0.00%    100.00% |           0      0.00%    100.00% |           0      0.00%    100.00% |           0      0.00%    100.00% |           0      0.00%    100.00% |           0      0.00%    100.00%
system.ruby.L2Cache_Controller.SS.L1_UPGRADE::total           14                      
system.ruby.L2Cache_Controller.SS.L2_Replacement_clean |           0      0.00%      0.00% |           0      0.00%      0.00% |           0      0.00%      0.00% |           0      0.00%      0.00% |           0      0.00%      0.00% |           0      0.00%      0.00% |           0      0.00%      0.00% |           0      0.00%      0.00% |           0      0.00%      0.00% |           0      0.00%      0.00% |           0      0.00%      0.00% |           0      0.00%      0.00% |           1    100.00%    100.00% |           0      0.00%    100.00% |           0      0.00%    100.00% |           0      0.00%    100.00%
system.ruby.L2Cache_Controller.SS.L2_Replacement_clean::total            1                      
system.ruby.L2Cache_Controller.M.L1_GET_INSTR |          14     25.00%     25.00% |           0      0.00%     25.00% |           0      0.00%     25.00% |           0      0.00%     25.00% |           0      0.00%     25.00% |           0      0.00%     25.00% |           0      0.00%     25.00% |           0      0.00%     25.00% |          14     25.00%     50.00% |          14     25.00%     75.00% |           0      0.00%     75.00% |           0      0.00%     75.00% |           0      0.00%     75.00% |           0      0.00%     75.00% |          14     25.00%    100.00% |           0      0.00%    100.00%
system.ruby.L2Cache_Controller.M.L1_GET_INSTR::total           56                      
system.ruby.L2Cache_Controller.M.L1_GETS |        3581      5.99%      5.99% |        3602      6.02%     12.01% |        3667      6.13%     18.14% |        4049      6.77%     24.90% |        3647      6.10%     31.00% |        3476      5.81%     36.81% |        3597      6.01%     42.82% |        3838      6.42%     49.24% |        3741      6.25%     55.49% |        3601      6.02%     61.51% |        3587      6.00%     67.50% |        4100      6.85%     74.36% |        3951      6.60%     80.96% |        4121      6.89%     87.85% |        3920      6.55%     94.40% |        3350      5.60%    100.00%
system.ruby.L2Cache_Controller.M.L1_GETS::total        59828                      
system.ruby.L2Cache_Controller.M.L1_GETX |        4921      6.20%      6.20% |        5010      6.31%     12.50% |        4973      6.26%     18.76% |        4923      6.20%     24.96% |        4982      6.27%     31.23% |        4939      6.22%     37.45% |        4899      6.17%     43.62% |        5072      6.39%     50.01% |        4958      6.24%     56.25% |        4996      6.29%     62.54% |        4998      6.29%     68.83% |        4942      6.22%     75.05% |        4967      6.25%     81.31% |        4860      6.12%     87.43% |        4981      6.27%     93.70% |        5007      6.30%    100.00%
system.ruby.L2Cache_Controller.M.L1_GETX::total        79428                      
system.ruby.L2Cache_Controller.M.L2_Replacement |           0      0.00%      0.00% |           0      0.00%      0.00% |           0      0.00%      0.00% |           0      0.00%      0.00% |           0      0.00%      0.00% |           0      0.00%      0.00% |           0      0.00%      0.00% |           0      0.00%      0.00% |           0      0.00%      0.00% |           0      0.00%      0.00% |           0      0.00%      0.00% |           0      0.00%      0.00% |           1    100.00%    100.00% |           0      0.00%    100.00% |           0      0.00%    100.00% |           0      0.00%    100.00%
system.ruby.L2Cache_Controller.M.L2_Replacement::total            1                      
system.ruby.L2Cache_Controller.MT.L1_GETS |          56      6.38%      6.38% |          42      4.78%     11.16% |          70      7.97%     19.13% |          56      6.38%     25.51% |          56      6.38%     31.89% |          70      7.97%     39.86% |          56      6.38%     46.24% |          70      7.97%     54.21% |          53      6.04%     60.25% |          68      7.74%     68.00% |          50      5.69%     73.69% |          49      5.58%     79.27% |          42      4.78%     84.05% |          42      4.78%     88.84% |          56      6.38%     95.22% |          42      4.78%    100.00%
system.ruby.L2Cache_Controller.MT.L1_GETS::total          878                      
system.ruby.L2Cache_Controller.MT.L1_PUTX |       19863      6.20%      6.20% |       19816      6.19%     12.39% |       19647      6.13%     18.52% |       20318      6.34%     24.86% |       19719      6.15%     31.01% |       19690      6.15%     37.16% |       19858      6.20%     43.36% |       20286      6.33%     49.69% |       20145      6.29%     55.98% |       19816      6.19%     62.16% |       19925      6.22%     68.38% |       20377      6.36%     74.74% |       20436      6.38%     81.12% |       20485      6.39%     87.52% |       20266      6.33%     93.84% |       19727      6.16%    100.00%
system.ruby.L2Cache_Controller.MT.L1_PUTX::total       320374                      
system.ruby.L2Cache_Controller.M_I.Mem_Ack |           0      0.00%      0.00% |           0      0.00%      0.00% |           0      0.00%      0.00% |           0      0.00%      0.00% |           0      0.00%      0.00% |           0      0.00%      0.00% |           0      0.00%      0.00% |           0      0.00%      0.00% |           0      0.00%      0.00% |           0      0.00%      0.00% |           0      0.00%      0.00% |           0      0.00%      0.00% |           2    100.00%    100.00% |           0      0.00%    100.00% |           0      0.00%    100.00% |           0      0.00%    100.00%
system.ruby.L2Cache_Controller.M_I.Mem_Ack::total            2                      
system.ruby.L2Cache_Controller.I_I.Ack_all |           0      0.00%      0.00% |           0      0.00%      0.00% |           0      0.00%      0.00% |           0      0.00%      0.00% |           0      0.00%      0.00% |           0      0.00%      0.00% |           0      0.00%      0.00% |           0      0.00%      0.00% |           0      0.00%      0.00% |           0      0.00%      0.00% |           0      0.00%      0.00% |           0      0.00%      0.00% |           1    100.00%    100.00% |           0      0.00%    100.00% |           0      0.00%    100.00% |           0      0.00%    100.00%
system.ruby.L2Cache_Controller.I_I.Ack_all::total            1                      
system.ruby.L2Cache_Controller.ISS.Mem_Data |        6720      6.34%      6.34% |        6468      6.10%     12.44% |        6244      5.89%     18.33% |        6622      6.25%     24.57% |        6370      6.01%     30.58% |        6566      6.19%     36.77% |        6636      6.26%     43.03% |        6664      6.28%     49.31% |        6762      6.38%     55.69% |        6566      6.19%     61.88% |        6664      6.28%     68.17% |        6692      6.31%     74.48% |        6874      6.48%     80.96% |        6818      6.43%     87.39% |        6678      6.30%     93.69% |        6692      6.31%    100.00%
system.ruby.L2Cache_Controller.ISS.Mem_Data::total       106036                      
system.ruby.L2Cache_Controller.IS.Mem_Data |        1288      6.30%      6.30% |        1316      6.44%     12.74% |        1442      7.05%     19.79% |        1232      6.03%     25.82% |        1288      6.30%     32.12% |        1274      6.23%     38.36% |        1246      6.10%     44.45% |        1246      6.10%     50.55% |        1302      6.37%     56.92% |        1106      5.41%     62.33% |        1204      5.89%     68.22% |        1232      6.03%     74.25% |        1204      5.89%     80.14% |        1274      6.23%     86.37% |        1470      7.19%     93.56% |        1316      6.44%    100.00%
system.ruby.L2Cache_Controller.IS.Mem_Data::total        20440                      
system.ruby.L2Cache_Controller.IM.Mem_Data |        5684      6.21%      6.21% |        5768      6.30%     12.51% |        5796      6.33%     18.84% |        5754      6.29%     25.13% |        5768      6.30%     31.43% |        5740      6.27%     37.70% |        5754      6.29%     43.98% |        5740      6.27%     50.25% |        5698      6.22%     56.48% |        5684      6.21%     62.69% |        5698      6.22%     68.91% |        5670      6.19%     75.10% |        5670      6.19%     81.30% |        5712      6.24%     87.54% |        5712      6.24%     93.78% |        5698      6.22%    100.00%
system.ruby.L2Cache_Controller.IM.Mem_Data::total        91546                      
system.ruby.L2Cache_Controller.SS_MB.Exclusive_Unblock |           0      0.00%      0.00% |           0      0.00%      0.00% |          14    100.00%    100.00% |           0      0.00%    100.00% |           0      0.00%    100.00% |           0      0.00%    100.00% |           0      0.00%    100.00% |           0      0.00%    100.00% |           0      0.00%    100.00% |           0      0.00%    100.00% |           0      0.00%    100.00% |           0      0.00%    100.00% |           0      0.00%    100.00% |           0      0.00%    100.00% |           0      0.00%    100.00% |           0      0.00%    100.00%
system.ruby.L2Cache_Controller.SS_MB.Exclusive_Unblock::total           14                      
system.ruby.L2Cache_Controller.MT_MB.Exclusive_Unblock |       20906      6.21%      6.21% |       20848      6.19%     12.40% |       20680      6.14%     18.54% |       21348      6.34%     24.87% |       20767      6.17%     31.04% |       20721      6.15%     37.19% |       20886      6.20%     43.39% |       21314      6.33%     49.72% |       21159      6.28%     56.00% |       20847      6.19%     62.19% |       20947      6.22%     68.41% |       21404      6.35%     74.76% |       21462      6.37%     81.13% |       21511      6.39%     87.52% |       21291      6.32%     93.84% |       20747      6.16%    100.00%
system.ruby.L2Cache_Controller.MT_MB.Exclusive_Unblock::total       336838                      
system.ruby.L2Cache_Controller.MT_IIB.WB_Data |          56      6.39%      6.39% |          42      4.79%     11.19% |          70      7.99%     19.18% |          56      6.39%     25.57% |          56      6.39%     31.96% |          70      7.99%     39.95% |          56      6.39%     46.35% |          70      7.99%     54.34% |          52      5.94%     60.27% |          68      7.76%     68.04% |          50      5.71%     73.74% |          49      5.59%     79.34% |          42      4.79%     84.13% |          42      4.79%     88.93% |          55      6.28%     95.21% |          42      4.79%    100.00%
system.ruby.L2Cache_Controller.MT_IIB.WB_Data::total          876                      
system.ruby.L2Cache_Controller.MT_IIB.Unblock |           0      0.00%      0.00% |           0      0.00%      0.00% |           0      0.00%      0.00% |           0      0.00%      0.00% |           0      0.00%      0.00% |           0      0.00%      0.00% |           0      0.00%      0.00% |           0      0.00%      0.00% |           1     50.00%     50.00% |           0      0.00%     50.00% |           0      0.00%     50.00% |           0      0.00%     50.00% |           0      0.00%     50.00% |           0      0.00%     50.00% |           1     50.00%    100.00% |           0      0.00%    100.00%
system.ruby.L2Cache_Controller.MT_IIB.Unblock::total            2                      
system.ruby.L2Cache_Controller.MT_IB.WB_Data |           0      0.00%      0.00% |           0      0.00%      0.00% |           0      0.00%      0.00% |           0      0.00%      0.00% |           0      0.00%      0.00% |           0      0.00%      0.00% |           0      0.00%      0.00% |           0      0.00%      0.00% |           1     50.00%     50.00% |           0      0.00%     50.00% |           0      0.00%     50.00% |           0      0.00%     50.00% |           0      0.00%     50.00% |           0      0.00%     50.00% |           1     50.00%    100.00% |           0      0.00%    100.00%
system.ruby.L2Cache_Controller.MT_IB.WB_Data::total            2                      
system.ruby.L2Cache_Controller.MT_SB.Unblock |          56      6.39%      6.39% |          42      4.79%     11.19% |          70      7.99%     19.18% |          56      6.39%     25.57% |          56      6.39%     31.96% |          70      7.99%     39.95% |          56      6.39%     46.35% |          70      7.99%     54.34% |          52      5.94%     60.27% |          68      7.76%     68.04% |          50      5.71%     73.74% |          49      5.59%     79.34% |          42      4.79%     84.13% |          42      4.79%     88.93% |          55      6.28%     95.21% |          42      4.79%    100.00%
system.ruby.L2Cache_Controller.MT_SB.Unblock::total          876                      

---------- End Simulation Statistics   ----------
