
---------- Begin Simulation Statistics ----------
sim_seconds                                  0.015975                       # Number of seconds simulated
sim_ticks                                 15974560500                       # Number of ticks simulated
final_tick                                15974560500                       # Number of ticks from beginning of simulation (restored from checkpoints and never reset)
sim_freq                                 1000000000000                       # Frequency of simulated ticks
host_inst_rate                                  55866                       # Simulator instruction rate (inst/s)
host_op_rate                                    96881                       # Simulator op (including micro ops) rate (op/s)
host_tick_rate                               19394472                       # Simulator tick rate (ticks/s)
host_mem_usage                                2041160                       # Number of bytes of host memory used
host_seconds                                   823.67                       # Real time elapsed on the host
sim_insts                                    46015070                       # Number of instructions simulated
sim_ops                                      79797463                       # Number of ops (including micro ops) simulated
system.voltage_domain.voltage                       1                       # Voltage in Volts
system.clk_domain.clock                          1000                       # Clock period in ticks
system.mem_ctrls0.pwrStateResidencyTicks::UNDEFINED  15974560500                       # Cumulative time (in ticks) in various power states
system.mem_ctrls0.bytes_read::ruby.dir_cntrl0      9920128                       # Number of bytes read from this memory
system.mem_ctrls0.bytes_read::total           9920128                       # Number of bytes read from this memory
system.mem_ctrls0.bytes_written::ruby.dir_cntrl0       955904                       # Number of bytes written to this memory
system.mem_ctrls0.bytes_written::total         955904                       # Number of bytes written to this memory
system.mem_ctrls0.num_reads::ruby.dir_cntrl0       155002                       # Number of read requests responded to by this memory
system.mem_ctrls0.num_reads::total             155002                       # Number of read requests responded to by this memory
system.mem_ctrls0.num_writes::ruby.dir_cntrl0        14936                       # Number of write requests responded to by this memory
system.mem_ctrls0.num_writes::total             14936                       # Number of write requests responded to by this memory
system.mem_ctrls0.bw_read::ruby.dir_cntrl0    620995363                       # Total read bandwidth from this memory (bytes/s)
system.mem_ctrls0.bw_read::total            620995363                       # Total read bandwidth from this memory (bytes/s)
system.mem_ctrls0.bw_write::ruby.dir_cntrl0     59839142                       # Write bandwidth from this memory (bytes/s)
system.mem_ctrls0.bw_write::total            59839142                       # Write bandwidth from this memory (bytes/s)
system.mem_ctrls0.bw_total::ruby.dir_cntrl0    680834506                       # Total bandwidth to/from this memory (bytes/s)
system.mem_ctrls0.bw_total::total           680834506                       # Total bandwidth to/from this memory (bytes/s)
system.mem_ctrls0.readReqs                     155002                       # Number of read requests accepted
system.mem_ctrls0.avgNetLat                      0.00                       # Average network latency to DRAM controller
system.mem_ctrls0.writeReqs                     14936                       # Number of write requests accepted
system.mem_ctrls0.readBursts                   155002                       # Number of DRAM read bursts, including those serviced by the write queue
system.mem_ctrls0.writeBursts                   14936                       # Number of DRAM write bursts, including those merged in the write queue
system.mem_ctrls0.bytesReadDRAM               9919680                       # Total number of bytes read from DRAM
system.mem_ctrls0.bytesReadWrQ                    448                       # Total number of bytes read from write queue
system.mem_ctrls0.bytesWritten                 954432                       # Total number of bytes written to DRAM
system.mem_ctrls0.bytesReadSys                9920128                       # Total read bytes from the system interface side
system.mem_ctrls0.bytesWrittenSys              955904                       # Total written bytes from the system interface side
system.mem_ctrls0.servicedByWrQ                     7                       # Number of DRAM read bursts serviced by the write queue
system.mem_ctrls0.mergedWrBursts                    0                       # Number of DRAM write bursts merged with an existing one
system.mem_ctrls0.neitherReadNorWriteReqs            0                       # Number of requests that are neither read nor write
system.mem_ctrls0.perBankRdBursts::0             9891                       # Per bank write bursts
system.mem_ctrls0.perBankRdBursts::1             9790                       # Per bank write bursts
system.mem_ctrls0.perBankRdBursts::2             9623                       # Per bank write bursts
system.mem_ctrls0.perBankRdBursts::3             9629                       # Per bank write bursts
system.mem_ctrls0.perBankRdBursts::4             9328                       # Per bank write bursts
system.mem_ctrls0.perBankRdBursts::5             9200                       # Per bank write bursts
system.mem_ctrls0.perBankRdBursts::6             8976                       # Per bank write bursts
system.mem_ctrls0.perBankRdBursts::7             8988                       # Per bank write bursts
system.mem_ctrls0.perBankRdBursts::8             8967                       # Per bank write bursts
system.mem_ctrls0.perBankRdBursts::9             9105                       # Per bank write bursts
system.mem_ctrls0.perBankRdBursts::10            9942                       # Per bank write bursts
system.mem_ctrls0.perBankRdBursts::11           10237                       # Per bank write bursts
system.mem_ctrls0.perBankRdBursts::12           10571                       # Per bank write bursts
system.mem_ctrls0.perBankRdBursts::13           10621                       # Per bank write bursts
system.mem_ctrls0.perBankRdBursts::14           10209                       # Per bank write bursts
system.mem_ctrls0.perBankRdBursts::15            9918                       # Per bank write bursts
system.mem_ctrls0.perBankWrBursts::0             1019                       # Per bank write bursts
system.mem_ctrls0.perBankWrBursts::1              888                       # Per bank write bursts
system.mem_ctrls0.perBankWrBursts::2              866                       # Per bank write bursts
system.mem_ctrls0.perBankWrBursts::3              968                       # Per bank write bursts
system.mem_ctrls0.perBankWrBursts::4              877                       # Per bank write bursts
system.mem_ctrls0.perBankWrBursts::5              810                       # Per bank write bursts
system.mem_ctrls0.perBankWrBursts::6              742                       # Per bank write bursts
system.mem_ctrls0.perBankWrBursts::7              742                       # Per bank write bursts
system.mem_ctrls0.perBankWrBursts::8              797                       # Per bank write bursts
system.mem_ctrls0.perBankWrBursts::9              860                       # Per bank write bursts
system.mem_ctrls0.perBankWrBursts::10            1103                       # Per bank write bursts
system.mem_ctrls0.perBankWrBursts::11            1091                       # Per bank write bursts
system.mem_ctrls0.perBankWrBursts::12            1093                       # Per bank write bursts
system.mem_ctrls0.perBankWrBursts::13            1003                       # Per bank write bursts
system.mem_ctrls0.perBankWrBursts::14            1027                       # Per bank write bursts
system.mem_ctrls0.perBankWrBursts::15            1027                       # Per bank write bursts
system.mem_ctrls0.numRdRetry                        0                       # Number of times read queue was full causing retry
system.mem_ctrls0.numWrRetry                        0                       # Number of times write queue was full causing retry
system.mem_ctrls0.totGap                  15973446000                       # Total gap between requests
system.mem_ctrls0.readPktSize::0                    0                       # Read request sizes (log2)
system.mem_ctrls0.readPktSize::1                    0                       # Read request sizes (log2)
system.mem_ctrls0.readPktSize::2                    0                       # Read request sizes (log2)
system.mem_ctrls0.readPktSize::3                    0                       # Read request sizes (log2)
system.mem_ctrls0.readPktSize::4                    0                       # Read request sizes (log2)
system.mem_ctrls0.readPktSize::5                    0                       # Read request sizes (log2)
system.mem_ctrls0.readPktSize::6               155002                       # Read request sizes (log2)
system.mem_ctrls0.writePktSize::0                   0                       # Write request sizes (log2)
system.mem_ctrls0.writePktSize::1                   0                       # Write request sizes (log2)
system.mem_ctrls0.writePktSize::2                   0                       # Write request sizes (log2)
system.mem_ctrls0.writePktSize::3                   0                       # Write request sizes (log2)
system.mem_ctrls0.writePktSize::4                   0                       # Write request sizes (log2)
system.mem_ctrls0.writePktSize::5                   0                       # Write request sizes (log2)
system.mem_ctrls0.writePktSize::6               14936                       # Write request sizes (log2)
system.mem_ctrls0.rdQLenPdf::0                  76454                       # What read queue length does an incoming req see
system.mem_ctrls0.rdQLenPdf::1                  40747                       # What read queue length does an incoming req see
system.mem_ctrls0.rdQLenPdf::2                  20844                       # What read queue length does an incoming req see
system.mem_ctrls0.rdQLenPdf::3                  10007                       # What read queue length does an incoming req see
system.mem_ctrls0.rdQLenPdf::4                   4364                       # What read queue length does an incoming req see
system.mem_ctrls0.rdQLenPdf::5                   1683                       # What read queue length does an incoming req see
system.mem_ctrls0.rdQLenPdf::6                    632                       # What read queue length does an incoming req see
system.mem_ctrls0.rdQLenPdf::7                    175                       # What read queue length does an incoming req see
system.mem_ctrls0.rdQLenPdf::8                     69                       # What read queue length does an incoming req see
system.mem_ctrls0.rdQLenPdf::9                     18                       # What read queue length does an incoming req see
system.mem_ctrls0.rdQLenPdf::10                     2                       # What read queue length does an incoming req see
system.mem_ctrls0.rdQLenPdf::11                     0                       # What read queue length does an incoming req see
system.mem_ctrls0.rdQLenPdf::12                     0                       # What read queue length does an incoming req see
system.mem_ctrls0.rdQLenPdf::13                     0                       # What read queue length does an incoming req see
system.mem_ctrls0.rdQLenPdf::14                     0                       # What read queue length does an incoming req see
system.mem_ctrls0.rdQLenPdf::15                     0                       # What read queue length does an incoming req see
system.mem_ctrls0.rdQLenPdf::16                     0                       # What read queue length does an incoming req see
system.mem_ctrls0.rdQLenPdf::17                     0                       # What read queue length does an incoming req see
system.mem_ctrls0.rdQLenPdf::18                     0                       # What read queue length does an incoming req see
system.mem_ctrls0.rdQLenPdf::19                     0                       # What read queue length does an incoming req see
system.mem_ctrls0.rdQLenPdf::20                     0                       # What read queue length does an incoming req see
system.mem_ctrls0.rdQLenPdf::21                     0                       # What read queue length does an incoming req see
system.mem_ctrls0.rdQLenPdf::22                     0                       # What read queue length does an incoming req see
system.mem_ctrls0.rdQLenPdf::23                     0                       # What read queue length does an incoming req see
system.mem_ctrls0.rdQLenPdf::24                     0                       # What read queue length does an incoming req see
system.mem_ctrls0.rdQLenPdf::25                     0                       # What read queue length does an incoming req see
system.mem_ctrls0.rdQLenPdf::26                     0                       # What read queue length does an incoming req see
system.mem_ctrls0.rdQLenPdf::27                     0                       # What read queue length does an incoming req see
system.mem_ctrls0.rdQLenPdf::28                     0                       # What read queue length does an incoming req see
system.mem_ctrls0.rdQLenPdf::29                     0                       # What read queue length does an incoming req see
system.mem_ctrls0.rdQLenPdf::30                     0                       # What read queue length does an incoming req see
system.mem_ctrls0.rdQLenPdf::31                     0                       # What read queue length does an incoming req see
system.mem_ctrls0.wrQLenPdf::0                      1                       # What write queue length does an incoming req see
system.mem_ctrls0.wrQLenPdf::1                      1                       # What write queue length does an incoming req see
system.mem_ctrls0.wrQLenPdf::2                      1                       # What write queue length does an incoming req see
system.mem_ctrls0.wrQLenPdf::3                      1                       # What write queue length does an incoming req see
system.mem_ctrls0.wrQLenPdf::4                      1                       # What write queue length does an incoming req see
system.mem_ctrls0.wrQLenPdf::5                      1                       # What write queue length does an incoming req see
system.mem_ctrls0.wrQLenPdf::6                      1                       # What write queue length does an incoming req see
system.mem_ctrls0.wrQLenPdf::7                      1                       # What write queue length does an incoming req see
system.mem_ctrls0.wrQLenPdf::8                      1                       # What write queue length does an incoming req see
system.mem_ctrls0.wrQLenPdf::9                      1                       # What write queue length does an incoming req see
system.mem_ctrls0.wrQLenPdf::10                     1                       # What write queue length does an incoming req see
system.mem_ctrls0.wrQLenPdf::11                     1                       # What write queue length does an incoming req see
system.mem_ctrls0.wrQLenPdf::12                     1                       # What write queue length does an incoming req see
system.mem_ctrls0.wrQLenPdf::13                     1                       # What write queue length does an incoming req see
system.mem_ctrls0.wrQLenPdf::14                     1                       # What write queue length does an incoming req see
system.mem_ctrls0.wrQLenPdf::15                   234                       # What write queue length does an incoming req see
system.mem_ctrls0.wrQLenPdf::16                   258                       # What write queue length does an incoming req see
system.mem_ctrls0.wrQLenPdf::17                   610                       # What write queue length does an incoming req see
system.mem_ctrls0.wrQLenPdf::18                   865                       # What write queue length does an incoming req see
system.mem_ctrls0.wrQLenPdf::19                   911                       # What write queue length does an incoming req see
system.mem_ctrls0.wrQLenPdf::20                   938                       # What write queue length does an incoming req see
system.mem_ctrls0.wrQLenPdf::21                   929                       # What write queue length does an incoming req see
system.mem_ctrls0.wrQLenPdf::22                   937                       # What write queue length does an incoming req see
system.mem_ctrls0.wrQLenPdf::23                   934                       # What write queue length does an incoming req see
system.mem_ctrls0.wrQLenPdf::24                   936                       # What write queue length does an incoming req see
system.mem_ctrls0.wrQLenPdf::25                   930                       # What write queue length does an incoming req see
system.mem_ctrls0.wrQLenPdf::26                   920                       # What write queue length does an incoming req see
system.mem_ctrls0.wrQLenPdf::27                   917                       # What write queue length does an incoming req see
system.mem_ctrls0.wrQLenPdf::28                   914                       # What write queue length does an incoming req see
system.mem_ctrls0.wrQLenPdf::29                   917                       # What write queue length does an incoming req see
system.mem_ctrls0.wrQLenPdf::30                   916                       # What write queue length does an incoming req see
system.mem_ctrls0.wrQLenPdf::31                   913                       # What write queue length does an incoming req see
system.mem_ctrls0.wrQLenPdf::32                   914                       # What write queue length does an incoming req see
system.mem_ctrls0.wrQLenPdf::33                    26                       # What write queue length does an incoming req see
system.mem_ctrls0.wrQLenPdf::34                     2                       # What write queue length does an incoming req see
system.mem_ctrls0.wrQLenPdf::35                     0                       # What write queue length does an incoming req see
system.mem_ctrls0.wrQLenPdf::36                     0                       # What write queue length does an incoming req see
system.mem_ctrls0.wrQLenPdf::37                     0                       # What write queue length does an incoming req see
system.mem_ctrls0.wrQLenPdf::38                     0                       # What write queue length does an incoming req see
system.mem_ctrls0.wrQLenPdf::39                     0                       # What write queue length does an incoming req see
system.mem_ctrls0.wrQLenPdf::40                     0                       # What write queue length does an incoming req see
system.mem_ctrls0.wrQLenPdf::41                     0                       # What write queue length does an incoming req see
system.mem_ctrls0.wrQLenPdf::42                     0                       # What write queue length does an incoming req see
system.mem_ctrls0.wrQLenPdf::43                     0                       # What write queue length does an incoming req see
system.mem_ctrls0.wrQLenPdf::44                     0                       # What write queue length does an incoming req see
system.mem_ctrls0.wrQLenPdf::45                     0                       # What write queue length does an incoming req see
system.mem_ctrls0.wrQLenPdf::46                     0                       # What write queue length does an incoming req see
system.mem_ctrls0.wrQLenPdf::47                     0                       # What write queue length does an incoming req see
system.mem_ctrls0.wrQLenPdf::48                     0                       # What write queue length does an incoming req see
system.mem_ctrls0.wrQLenPdf::49                     0                       # What write queue length does an incoming req see
system.mem_ctrls0.wrQLenPdf::50                     0                       # What write queue length does an incoming req see
system.mem_ctrls0.wrQLenPdf::51                     0                       # What write queue length does an incoming req see
system.mem_ctrls0.wrQLenPdf::52                     0                       # What write queue length does an incoming req see
system.mem_ctrls0.wrQLenPdf::53                     0                       # What write queue length does an incoming req see
system.mem_ctrls0.wrQLenPdf::54                     0                       # What write queue length does an incoming req see
system.mem_ctrls0.wrQLenPdf::55                     0                       # What write queue length does an incoming req see
system.mem_ctrls0.wrQLenPdf::56                     0                       # What write queue length does an incoming req see
system.mem_ctrls0.wrQLenPdf::57                     0                       # What write queue length does an incoming req see
system.mem_ctrls0.wrQLenPdf::58                     0                       # What write queue length does an incoming req see
system.mem_ctrls0.wrQLenPdf::59                     0                       # What write queue length does an incoming req see
system.mem_ctrls0.wrQLenPdf::60                     0                       # What write queue length does an incoming req see
system.mem_ctrls0.wrQLenPdf::61                     0                       # What write queue length does an incoming req see
system.mem_ctrls0.wrQLenPdf::62                     0                       # What write queue length does an incoming req see
system.mem_ctrls0.wrQLenPdf::63                     0                       # What write queue length does an incoming req see
system.mem_ctrls0.bytesPerActivate::samples        93919                       # Bytes accessed per row activation
system.mem_ctrls0.bytesPerActivate::mean   115.777042                       # Bytes accessed per row activation
system.mem_ctrls0.bytesPerActivate::gmean    89.793879                       # Bytes accessed per row activation
system.mem_ctrls0.bytesPerActivate::stdev   122.801184                       # Bytes accessed per row activation
system.mem_ctrls0.bytesPerActivate::0-127        65241     69.47%     69.47% # Bytes accessed per row activation
system.mem_ctrls0.bytesPerActivate::128-255        18936     20.16%     89.63% # Bytes accessed per row activation
system.mem_ctrls0.bytesPerActivate::256-383         4173      4.44%     94.07% # Bytes accessed per row activation
system.mem_ctrls0.bytesPerActivate::384-511         2518      2.68%     96.75% # Bytes accessed per row activation
system.mem_ctrls0.bytesPerActivate::512-639         1429      1.52%     98.27% # Bytes accessed per row activation
system.mem_ctrls0.bytesPerActivate::640-767         1114      1.19%     99.46% # Bytes accessed per row activation
system.mem_ctrls0.bytesPerActivate::768-895          151      0.16%     99.62% # Bytes accessed per row activation
system.mem_ctrls0.bytesPerActivate::896-1023          144      0.15%     99.77% # Bytes accessed per row activation
system.mem_ctrls0.bytesPerActivate::1024-1151          213      0.23%    100.00% # Bytes accessed per row activation
system.mem_ctrls0.bytesPerActivate::total        93919                       # Bytes accessed per row activation
system.mem_ctrls0.rdPerTurnAround::samples          900                       # Reads before turning the bus around for writes
system.mem_ctrls0.rdPerTurnAround::mean    172.203333                       # Reads before turning the bus around for writes
system.mem_ctrls0.rdPerTurnAround::gmean    57.381591                       # Reads before turning the bus around for writes
system.mem_ctrls0.rdPerTurnAround::stdev  2139.886826                       # Reads before turning the bus around for writes
system.mem_ctrls0.rdPerTurnAround::0-2047          896     99.56%     99.56% # Reads before turning the bus around for writes
system.mem_ctrls0.rdPerTurnAround::2048-4095            3      0.33%     99.89% # Reads before turning the bus around for writes
system.mem_ctrls0.rdPerTurnAround::63488-65535            1      0.11%    100.00% # Reads before turning the bus around for writes
system.mem_ctrls0.rdPerTurnAround::total          900                       # Reads before turning the bus around for writes
system.mem_ctrls0.wrPerTurnAround::samples          900                       # Writes before turning the bus around for reads
system.mem_ctrls0.wrPerTurnAround::mean     16.570000                       # Writes before turning the bus around for reads
system.mem_ctrls0.wrPerTurnAround::gmean    16.546535                       # Writes before turning the bus around for reads
system.mem_ctrls0.wrPerTurnAround::stdev     0.897773                       # Writes before turning the bus around for reads
system.mem_ctrls0.wrPerTurnAround::16             633     70.33%     70.33% # Writes before turning the bus around for reads
system.mem_ctrls0.wrPerTurnAround::17              27      3.00%     73.33% # Writes before turning the bus around for reads
system.mem_ctrls0.wrPerTurnAround::18             234     26.00%     99.33% # Writes before turning the bus around for reads
system.mem_ctrls0.wrPerTurnAround::19               6      0.67%    100.00% # Writes before turning the bus around for reads
system.mem_ctrls0.wrPerTurnAround::total          900                       # Writes before turning the bus around for reads
system.mem_ctrls0.totQLat                  4361968500                       # Total ticks spent queuing
system.mem_ctrls0.totMemAccLat             7268124750                       # Total ticks spent from burst creation until serviced by the DRAM
system.mem_ctrls0.totBusLat                 774975000                       # Total ticks spent in databus transfers
system.mem_ctrls0.avgQLat                    28142.64                       # Average queueing delay per DRAM burst
system.mem_ctrls0.avgBusLat                   5000.00                       # Average bus latency per DRAM burst
system.mem_ctrls0.avgMemAccLat               46892.64                       # Average memory access latency per DRAM burst
system.mem_ctrls0.avgRdBW                      620.97                       # Average DRAM read bandwidth in MiByte/s
system.mem_ctrls0.avgWrBW                       59.75                       # Average achieved write bandwidth in MiByte/s
system.mem_ctrls0.avgRdBWSys                   621.00                       # Average system read bandwidth in MiByte/s
system.mem_ctrls0.avgWrBWSys                    59.84                       # Average system write bandwidth in MiByte/s
system.mem_ctrls0.peakBW                     12800.00                       # Theoretical peak bandwidth in MiByte/s
system.mem_ctrls0.busUtil                        5.32                       # Data bus utilization in percentage
system.mem_ctrls0.busUtilRead                    4.85                       # Data bus utilization in percentage for reads
system.mem_ctrls0.busUtilWrite                   0.47                       # Data bus utilization in percentage for writes
system.mem_ctrls0.avgRdQLen                      1.54                       # Average read queue length when enqueuing
system.mem_ctrls0.avgWrQLen                     13.24                       # Average write queue length when enqueuing
system.mem_ctrls0.readRowHits                   72646                       # Number of row buffer hits during reads
system.mem_ctrls0.writeRowHits                   3342                       # Number of row buffer hits during writes
system.mem_ctrls0.readRowHitRate                46.87                       # Row buffer hit rate for reads
system.mem_ctrls0.writeRowHitRate               22.38                       # Row buffer hit rate for writes
system.mem_ctrls0.avgGap                     93995.73                       # Average gap between requests
system.mem_ctrls0.pageHitRate                   44.72                       # Row buffer hit rate, read and write combined
system.mem_ctrls0_0.actEnergy               318543960                       # Energy for activate commands per rank (pJ)
system.mem_ctrls0_0.preEnergy               169310130                       # Energy for precharge commands per rank (pJ)
system.mem_ctrls0_0.readEnergy              538534500                       # Energy for read commands per rank (pJ)
system.mem_ctrls0_0.writeEnergy              36080640                       # Energy for write commands per rank (pJ)
system.mem_ctrls0_0.refreshEnergy        1232353200.000000                       # Energy for refresh commands per rank (pJ)
system.mem_ctrls0_0.actBackEnergy          1398268710                       # Energy for active background per rank (pJ)
system.mem_ctrls0_0.preBackEnergy            38735520                       # Energy for precharge background per rank (pJ)
system.mem_ctrls0_0.actPowerDownEnergy     5160809070                       # Energy for active power-down per rank (pJ)
system.mem_ctrls0_0.prePowerDownEnergy      329686080                       # Energy for precharge power-down per rank (pJ)
system.mem_ctrls0_0.selfRefreshEnergy       172122315                       # Energy for self refresh per rank (pJ)
system.mem_ctrls0_0.totalEnergy            9394888065                       # Total energy per rank (pJ)
system.mem_ctrls0_0.averagePower           588.115562                       # Core power per rank (mW)
system.mem_ctrls0_0.totalIdleTime         12805389250                       # Total Idle time Per DRAM Rank
system.mem_ctrls0_0.memoryStateTime::IDLE     28369250                       # Time in different power states
system.mem_ctrls0_0.memoryStateTime::REF    521612000                       # Time in different power states
system.mem_ctrls0_0.memoryStateTime::SREF    630196250                       # Time in different power states
system.mem_ctrls0_0.memoryStateTime::PRE_PDN    858403750                       # Time in different power states
system.mem_ctrls0_0.memoryStateTime::ACT   2618277500                       # Time in different power states
system.mem_ctrls0_0.memoryStateTime::ACT_PDN  11317701750                       # Time in different power states
system.mem_ctrls0_1.actEnergy               352044840                       # Energy for activate commands per rank (pJ)
system.mem_ctrls0_1.preEnergy               187112475                       # Energy for precharge commands per rank (pJ)
system.mem_ctrls0_1.readEnergy              568129800                       # Energy for read commands per rank (pJ)
system.mem_ctrls0_1.writeEnergy              41765220                       # Energy for write commands per rank (pJ)
system.mem_ctrls0_1.refreshEnergy        1255094880.000000                       # Energy for refresh commands per rank (pJ)
system.mem_ctrls0_1.actBackEnergy          1494639180                       # Energy for active background per rank (pJ)
system.mem_ctrls0_1.preBackEnergy            37475520                       # Energy for precharge background per rank (pJ)
system.mem_ctrls0_1.actPowerDownEnergy     5133319680                       # Energy for active power-down per rank (pJ)
system.mem_ctrls0_1.prePowerDownEnergy      342816000                       # Energy for precharge power-down per rank (pJ)
system.mem_ctrls0_1.selfRefreshEnergy       136704810                       # Energy for self refresh per rank (pJ)
system.mem_ctrls0_1.totalEnergy            9549443025                       # Total energy per rank (pJ)
system.mem_ctrls0_1.averagePower           597.790629                       # Core power per rank (mW)
system.mem_ctrls0_1.totalIdleTime         12598021500                       # Total Idle time Per DRAM Rank
system.mem_ctrls0_1.memoryStateTime::IDLE     24869750                       # Time in different power states
system.mem_ctrls0_1.memoryStateTime::REF    531316000                       # Time in different power states
system.mem_ctrls0_1.memoryStateTime::SREF    448459000                       # Time in different power states
system.mem_ctrls0_1.memoryStateTime::PRE_PDN    892553000                       # Time in different power states
system.mem_ctrls0_1.memoryStateTime::ACT   2819360000                       # Time in different power states
system.mem_ctrls0_1.memoryStateTime::ACT_PDN  11258002750                       # Time in different power states
system.mem_ctrls1.pwrStateResidencyTicks::UNDEFINED  15974560500                       # Cumulative time (in ticks) in various power states
system.mem_ctrls1.bytes_read::ruby.dir_cntrl1      9898304                       # Number of bytes read from this memory
system.mem_ctrls1.bytes_read::total           9898304                       # Number of bytes read from this memory
system.mem_ctrls1.bytes_written::ruby.dir_cntrl1       953216                       # Number of bytes written to this memory
system.mem_ctrls1.bytes_written::total         953216                       # Number of bytes written to this memory
system.mem_ctrls1.num_reads::ruby.dir_cntrl1       154661                       # Number of read requests responded to by this memory
system.mem_ctrls1.num_reads::total             154661                       # Number of read requests responded to by this memory
system.mem_ctrls1.num_writes::ruby.dir_cntrl1        14894                       # Number of write requests responded to by this memory
system.mem_ctrls1.num_writes::total             14894                       # Number of write requests responded to by this memory
system.mem_ctrls1.bw_read::ruby.dir_cntrl1    619629191                       # Total read bandwidth from this memory (bytes/s)
system.mem_ctrls1.bw_read::total            619629191                       # Total read bandwidth from this memory (bytes/s)
system.mem_ctrls1.bw_write::ruby.dir_cntrl1     59670875                       # Write bandwidth from this memory (bytes/s)
system.mem_ctrls1.bw_write::total            59670875                       # Write bandwidth from this memory (bytes/s)
system.mem_ctrls1.bw_total::ruby.dir_cntrl1    679300066                       # Total bandwidth to/from this memory (bytes/s)
system.mem_ctrls1.bw_total::total           679300066                       # Total bandwidth to/from this memory (bytes/s)
system.mem_ctrls1.readReqs                     154661                       # Number of read requests accepted
system.mem_ctrls1.avgNetLat                      0.00                       # Average network latency to DRAM controller
system.mem_ctrls1.writeReqs                     14894                       # Number of write requests accepted
system.mem_ctrls1.readBursts                   154661                       # Number of DRAM read bursts, including those serviced by the write queue
system.mem_ctrls1.writeBursts                   14894                       # Number of DRAM write bursts, including those merged in the write queue
system.mem_ctrls1.bytesReadDRAM               9897600                       # Total number of bytes read from DRAM
system.mem_ctrls1.bytesReadWrQ                    704                       # Total number of bytes read from write queue
system.mem_ctrls1.bytesWritten                 951424                       # Total number of bytes written to DRAM
system.mem_ctrls1.bytesReadSys                9898304                       # Total read bytes from the system interface side
system.mem_ctrls1.bytesWrittenSys              953216                       # Total written bytes from the system interface side
system.mem_ctrls1.servicedByWrQ                    11                       # Number of DRAM read bursts serviced by the write queue
system.mem_ctrls1.mergedWrBursts                    0                       # Number of DRAM write bursts merged with an existing one
system.mem_ctrls1.neitherReadNorWriteReqs            0                       # Number of requests that are neither read nor write
system.mem_ctrls1.perBankRdBursts::0             9783                       # Per bank write bursts
system.mem_ctrls1.perBankRdBursts::1             9705                       # Per bank write bursts
system.mem_ctrls1.perBankRdBursts::2             9552                       # Per bank write bursts
system.mem_ctrls1.perBankRdBursts::3             9623                       # Per bank write bursts
system.mem_ctrls1.perBankRdBursts::4             9300                       # Per bank write bursts
system.mem_ctrls1.perBankRdBursts::5             9202                       # Per bank write bursts
system.mem_ctrls1.perBankRdBursts::6             9026                       # Per bank write bursts
system.mem_ctrls1.perBankRdBursts::7             8985                       # Per bank write bursts
system.mem_ctrls1.perBankRdBursts::8             8937                       # Per bank write bursts
system.mem_ctrls1.perBankRdBursts::9             9059                       # Per bank write bursts
system.mem_ctrls1.perBankRdBursts::10            9896                       # Per bank write bursts
system.mem_ctrls1.perBankRdBursts::11           10251                       # Per bank write bursts
system.mem_ctrls1.perBankRdBursts::12           10509                       # Per bank write bursts
system.mem_ctrls1.perBankRdBursts::13           10678                       # Per bank write bursts
system.mem_ctrls1.perBankRdBursts::14           10214                       # Per bank write bursts
system.mem_ctrls1.perBankRdBursts::15            9930                       # Per bank write bursts
system.mem_ctrls1.perBankWrBursts::0              982                       # Per bank write bursts
system.mem_ctrls1.perBankWrBursts::1              905                       # Per bank write bursts
system.mem_ctrls1.perBankWrBursts::2              861                       # Per bank write bursts
system.mem_ctrls1.perBankWrBursts::3              959                       # Per bank write bursts
system.mem_ctrls1.perBankWrBursts::4              849                       # Per bank write bursts
system.mem_ctrls1.perBankWrBursts::5              854                       # Per bank write bursts
system.mem_ctrls1.perBankWrBursts::6              761                       # Per bank write bursts
system.mem_ctrls1.perBankWrBursts::7              732                       # Per bank write bursts
system.mem_ctrls1.perBankWrBursts::8              784                       # Per bank write bursts
system.mem_ctrls1.perBankWrBursts::9              838                       # Per bank write bursts
system.mem_ctrls1.perBankWrBursts::10            1103                       # Per bank write bursts
system.mem_ctrls1.perBankWrBursts::11            1088                       # Per bank write bursts
system.mem_ctrls1.perBankWrBursts::12            1068                       # Per bank write bursts
system.mem_ctrls1.perBankWrBursts::13            1025                       # Per bank write bursts
system.mem_ctrls1.perBankWrBursts::14            1027                       # Per bank write bursts
system.mem_ctrls1.perBankWrBursts::15            1030                       # Per bank write bursts
system.mem_ctrls1.numRdRetry                        0                       # Number of times read queue was full causing retry
system.mem_ctrls1.numWrRetry                        0                       # Number of times write queue was full causing retry
system.mem_ctrls1.totGap                  15973970000                       # Total gap between requests
system.mem_ctrls1.readPktSize::0                    0                       # Read request sizes (log2)
system.mem_ctrls1.readPktSize::1                    0                       # Read request sizes (log2)
system.mem_ctrls1.readPktSize::2                    0                       # Read request sizes (log2)
system.mem_ctrls1.readPktSize::3                    0                       # Read request sizes (log2)
system.mem_ctrls1.readPktSize::4                    0                       # Read request sizes (log2)
system.mem_ctrls1.readPktSize::5                    0                       # Read request sizes (log2)
system.mem_ctrls1.readPktSize::6               154661                       # Read request sizes (log2)
system.mem_ctrls1.writePktSize::0                   0                       # Write request sizes (log2)
system.mem_ctrls1.writePktSize::1                   0                       # Write request sizes (log2)
system.mem_ctrls1.writePktSize::2                   0                       # Write request sizes (log2)
system.mem_ctrls1.writePktSize::3                   0                       # Write request sizes (log2)
system.mem_ctrls1.writePktSize::4                   0                       # Write request sizes (log2)
system.mem_ctrls1.writePktSize::5                   0                       # Write request sizes (log2)
system.mem_ctrls1.writePktSize::6               14894                       # Write request sizes (log2)
system.mem_ctrls1.rdQLenPdf::0                  76852                       # What read queue length does an incoming req see
system.mem_ctrls1.rdQLenPdf::1                  40387                       # What read queue length does an incoming req see
system.mem_ctrls1.rdQLenPdf::2                  20264                       # What read queue length does an incoming req see
system.mem_ctrls1.rdQLenPdf::3                  10073                       # What read queue length does an incoming req see
system.mem_ctrls1.rdQLenPdf::4                   4349                       # What read queue length does an incoming req see
system.mem_ctrls1.rdQLenPdf::5                   1718                       # What read queue length does an incoming req see
system.mem_ctrls1.rdQLenPdf::6                    661                       # What read queue length does an incoming req see
system.mem_ctrls1.rdQLenPdf::7                    232                       # What read queue length does an incoming req see
system.mem_ctrls1.rdQLenPdf::8                     71                       # What read queue length does an incoming req see
system.mem_ctrls1.rdQLenPdf::9                     34                       # What read queue length does an incoming req see
system.mem_ctrls1.rdQLenPdf::10                     5                       # What read queue length does an incoming req see
system.mem_ctrls1.rdQLenPdf::11                     2                       # What read queue length does an incoming req see
system.mem_ctrls1.rdQLenPdf::12                     1                       # What read queue length does an incoming req see
system.mem_ctrls1.rdQLenPdf::13                     1                       # What read queue length does an incoming req see
system.mem_ctrls1.rdQLenPdf::14                     0                       # What read queue length does an incoming req see
system.mem_ctrls1.rdQLenPdf::15                     0                       # What read queue length does an incoming req see
system.mem_ctrls1.rdQLenPdf::16                     0                       # What read queue length does an incoming req see
system.mem_ctrls1.rdQLenPdf::17                     0                       # What read queue length does an incoming req see
system.mem_ctrls1.rdQLenPdf::18                     0                       # What read queue length does an incoming req see
system.mem_ctrls1.rdQLenPdf::19                     0                       # What read queue length does an incoming req see
system.mem_ctrls1.rdQLenPdf::20                     0                       # What read queue length does an incoming req see
system.mem_ctrls1.rdQLenPdf::21                     0                       # What read queue length does an incoming req see
system.mem_ctrls1.rdQLenPdf::22                     0                       # What read queue length does an incoming req see
system.mem_ctrls1.rdQLenPdf::23                     0                       # What read queue length does an incoming req see
system.mem_ctrls1.rdQLenPdf::24                     0                       # What read queue length does an incoming req see
system.mem_ctrls1.rdQLenPdf::25                     0                       # What read queue length does an incoming req see
system.mem_ctrls1.rdQLenPdf::26                     0                       # What read queue length does an incoming req see
system.mem_ctrls1.rdQLenPdf::27                     0                       # What read queue length does an incoming req see
system.mem_ctrls1.rdQLenPdf::28                     0                       # What read queue length does an incoming req see
system.mem_ctrls1.rdQLenPdf::29                     0                       # What read queue length does an incoming req see
system.mem_ctrls1.rdQLenPdf::30                     0                       # What read queue length does an incoming req see
system.mem_ctrls1.rdQLenPdf::31                     0                       # What read queue length does an incoming req see
system.mem_ctrls1.wrQLenPdf::0                      1                       # What write queue length does an incoming req see
system.mem_ctrls1.wrQLenPdf::1                      1                       # What write queue length does an incoming req see
system.mem_ctrls1.wrQLenPdf::2                      1                       # What write queue length does an incoming req see
system.mem_ctrls1.wrQLenPdf::3                      1                       # What write queue length does an incoming req see
system.mem_ctrls1.wrQLenPdf::4                      1                       # What write queue length does an incoming req see
system.mem_ctrls1.wrQLenPdf::5                      1                       # What write queue length does an incoming req see
system.mem_ctrls1.wrQLenPdf::6                      1                       # What write queue length does an incoming req see
system.mem_ctrls1.wrQLenPdf::7                      1                       # What write queue length does an incoming req see
system.mem_ctrls1.wrQLenPdf::8                      1                       # What write queue length does an incoming req see
system.mem_ctrls1.wrQLenPdf::9                      1                       # What write queue length does an incoming req see
system.mem_ctrls1.wrQLenPdf::10                     1                       # What write queue length does an incoming req see
system.mem_ctrls1.wrQLenPdf::11                     1                       # What write queue length does an incoming req see
system.mem_ctrls1.wrQLenPdf::12                     1                       # What write queue length does an incoming req see
system.mem_ctrls1.wrQLenPdf::13                     1                       # What write queue length does an incoming req see
system.mem_ctrls1.wrQLenPdf::14                     1                       # What write queue length does an incoming req see
system.mem_ctrls1.wrQLenPdf::15                   209                       # What write queue length does an incoming req see
system.mem_ctrls1.wrQLenPdf::16                   256                       # What write queue length does an incoming req see
system.mem_ctrls1.wrQLenPdf::17                   615                       # What write queue length does an incoming req see
system.mem_ctrls1.wrQLenPdf::18                   854                       # What write queue length does an incoming req see
system.mem_ctrls1.wrQLenPdf::19                   930                       # What write queue length does an incoming req see
system.mem_ctrls1.wrQLenPdf::20                   939                       # What write queue length does an incoming req see
system.mem_ctrls1.wrQLenPdf::21                   941                       # What write queue length does an incoming req see
system.mem_ctrls1.wrQLenPdf::22                   926                       # What write queue length does an incoming req see
system.mem_ctrls1.wrQLenPdf::23                   929                       # What write queue length does an incoming req see
system.mem_ctrls1.wrQLenPdf::24                   928                       # What write queue length does an incoming req see
system.mem_ctrls1.wrQLenPdf::25                   919                       # What write queue length does an incoming req see
system.mem_ctrls1.wrQLenPdf::26                   923                       # What write queue length does an incoming req see
system.mem_ctrls1.wrQLenPdf::27                   914                       # What write queue length does an incoming req see
system.mem_ctrls1.wrQLenPdf::28                   920                       # What write queue length does an incoming req see
system.mem_ctrls1.wrQLenPdf::29                   913                       # What write queue length does an incoming req see
system.mem_ctrls1.wrQLenPdf::30                   920                       # What write queue length does an incoming req see
system.mem_ctrls1.wrQLenPdf::31                   918                       # What write queue length does an incoming req see
system.mem_ctrls1.wrQLenPdf::32                   911                       # What write queue length does an incoming req see
system.mem_ctrls1.wrQLenPdf::33                    13                       # What write queue length does an incoming req see
system.mem_ctrls1.wrQLenPdf::34                     1                       # What write queue length does an incoming req see
system.mem_ctrls1.wrQLenPdf::35                     0                       # What write queue length does an incoming req see
system.mem_ctrls1.wrQLenPdf::36                     0                       # What write queue length does an incoming req see
system.mem_ctrls1.wrQLenPdf::37                     0                       # What write queue length does an incoming req see
system.mem_ctrls1.wrQLenPdf::38                     0                       # What write queue length does an incoming req see
system.mem_ctrls1.wrQLenPdf::39                     0                       # What write queue length does an incoming req see
system.mem_ctrls1.wrQLenPdf::40                     0                       # What write queue length does an incoming req see
system.mem_ctrls1.wrQLenPdf::41                     0                       # What write queue length does an incoming req see
system.mem_ctrls1.wrQLenPdf::42                     0                       # What write queue length does an incoming req see
system.mem_ctrls1.wrQLenPdf::43                     0                       # What write queue length does an incoming req see
system.mem_ctrls1.wrQLenPdf::44                     0                       # What write queue length does an incoming req see
system.mem_ctrls1.wrQLenPdf::45                     0                       # What write queue length does an incoming req see
system.mem_ctrls1.wrQLenPdf::46                     0                       # What write queue length does an incoming req see
system.mem_ctrls1.wrQLenPdf::47                     0                       # What write queue length does an incoming req see
system.mem_ctrls1.wrQLenPdf::48                     0                       # What write queue length does an incoming req see
system.mem_ctrls1.wrQLenPdf::49                     0                       # What write queue length does an incoming req see
system.mem_ctrls1.wrQLenPdf::50                     0                       # What write queue length does an incoming req see
system.mem_ctrls1.wrQLenPdf::51                     0                       # What write queue length does an incoming req see
system.mem_ctrls1.wrQLenPdf::52                     0                       # What write queue length does an incoming req see
system.mem_ctrls1.wrQLenPdf::53                     0                       # What write queue length does an incoming req see
system.mem_ctrls1.wrQLenPdf::54                     0                       # What write queue length does an incoming req see
system.mem_ctrls1.wrQLenPdf::55                     0                       # What write queue length does an incoming req see
system.mem_ctrls1.wrQLenPdf::56                     0                       # What write queue length does an incoming req see
system.mem_ctrls1.wrQLenPdf::57                     0                       # What write queue length does an incoming req see
system.mem_ctrls1.wrQLenPdf::58                     0                       # What write queue length does an incoming req see
system.mem_ctrls1.wrQLenPdf::59                     0                       # What write queue length does an incoming req see
system.mem_ctrls1.wrQLenPdf::60                     0                       # What write queue length does an incoming req see
system.mem_ctrls1.wrQLenPdf::61                     0                       # What write queue length does an incoming req see
system.mem_ctrls1.wrQLenPdf::62                     0                       # What write queue length does an incoming req see
system.mem_ctrls1.wrQLenPdf::63                     0                       # What write queue length does an incoming req see
system.mem_ctrls1.bytesPerActivate::samples        93570                       # Bytes accessed per row activation
system.mem_ctrls1.bytesPerActivate::mean   115.942118                       # Bytes accessed per row activation
system.mem_ctrls1.bytesPerActivate::gmean    89.939510                       # Bytes accessed per row activation
system.mem_ctrls1.bytesPerActivate::stdev   123.023279                       # Bytes accessed per row activation
system.mem_ctrls1.bytesPerActivate::0-127        64769     69.22%     69.22% # Bytes accessed per row activation
system.mem_ctrls1.bytesPerActivate::128-255        19078     20.39%     89.61% # Bytes accessed per row activation
system.mem_ctrls1.bytesPerActivate::256-383         4168      4.45%     94.06% # Bytes accessed per row activation
system.mem_ctrls1.bytesPerActivate::384-511         2537      2.71%     96.77% # Bytes accessed per row activation
system.mem_ctrls1.bytesPerActivate::512-639         1365      1.46%     98.23% # Bytes accessed per row activation
system.mem_ctrls1.bytesPerActivate::640-767         1137      1.22%     99.45% # Bytes accessed per row activation
system.mem_ctrls1.bytesPerActivate::768-895          155      0.17%     99.61% # Bytes accessed per row activation
system.mem_ctrls1.bytesPerActivate::896-1023          124      0.13%     99.75% # Bytes accessed per row activation
system.mem_ctrls1.bytesPerActivate::1024-1151          237      0.25%    100.00% # Bytes accessed per row activation
system.mem_ctrls1.bytesPerActivate::total        93570                       # Bytes accessed per row activation
system.mem_ctrls1.rdPerTurnAround::samples          899                       # Reads before turning the bus around for writes
system.mem_ctrls1.rdPerTurnAround::mean    171.996663                       # Reads before turning the bus around for writes
system.mem_ctrls1.rdPerTurnAround::gmean    56.600369                       # Reads before turning the bus around for writes
system.mem_ctrls1.rdPerTurnAround::stdev  2204.889726                       # Reads before turning the bus around for writes
system.mem_ctrls1.rdPerTurnAround::0-4095          898     99.89%     99.89% # Reads before turning the bus around for writes
system.mem_ctrls1.rdPerTurnAround::65536-69631            1      0.11%    100.00% # Reads before turning the bus around for writes
system.mem_ctrls1.rdPerTurnAround::total          899                       # Reads before turning the bus around for writes
system.mem_ctrls1.wrPerTurnAround::samples          899                       # Writes before turning the bus around for reads
system.mem_ctrls1.wrPerTurnAround::mean     16.536151                       # Writes before turning the bus around for reads
system.mem_ctrls1.wrPerTurnAround::gmean    16.514162                       # Writes before turning the bus around for reads
system.mem_ctrls1.wrPerTurnAround::stdev     0.868641                       # Writes before turning the bus around for reads
system.mem_ctrls1.wrPerTurnAround::16             642     71.41%     71.41% # Writes before turning the bus around for reads
system.mem_ctrls1.wrPerTurnAround::17              34      3.78%     75.19% # Writes before turning the bus around for reads
system.mem_ctrls1.wrPerTurnAround::18             221     24.58%     99.78% # Writes before turning the bus around for reads
system.mem_ctrls1.wrPerTurnAround::19               2      0.22%    100.00% # Writes before turning the bus around for reads
system.mem_ctrls1.wrPerTurnAround::total          899                       # Writes before turning the bus around for reads
system.mem_ctrls1.totQLat                  4332726500                       # Total ticks spent queuing
system.mem_ctrls1.totMemAccLat             7232414000                       # Total ticks spent from burst creation until serviced by the DRAM
system.mem_ctrls1.totBusLat                 773250000                       # Total ticks spent in databus transfers
system.mem_ctrls1.avgQLat                    28016.34                       # Average queueing delay per DRAM burst
system.mem_ctrls1.avgBusLat                   5000.00                       # Average bus latency per DRAM burst
system.mem_ctrls1.avgMemAccLat               46766.34                       # Average memory access latency per DRAM burst
system.mem_ctrls1.avgRdBW                      619.59                       # Average DRAM read bandwidth in MiByte/s
system.mem_ctrls1.avgWrBW                       59.56                       # Average achieved write bandwidth in MiByte/s
system.mem_ctrls1.avgRdBWSys                   619.63                       # Average system read bandwidth in MiByte/s
system.mem_ctrls1.avgWrBWSys                    59.67                       # Average system write bandwidth in MiByte/s
system.mem_ctrls1.peakBW                     12800.00                       # Theoretical peak bandwidth in MiByte/s
system.mem_ctrls1.busUtil                        5.31                       # Data bus utilization in percentage
system.mem_ctrls1.busUtilRead                    4.84                       # Data bus utilization in percentage for reads
system.mem_ctrls1.busUtilWrite                   0.47                       # Data bus utilization in percentage for writes
system.mem_ctrls1.avgRdQLen                      1.54                       # Average read queue length when enqueuing
system.mem_ctrls1.avgWrQLen                     12.96                       # Average write queue length when enqueuing
system.mem_ctrls1.readRowHits                   72547                       # Number of row buffer hits during reads
system.mem_ctrls1.writeRowHits                   3397                       # Number of row buffer hits during writes
system.mem_ctrls1.readRowHitRate                46.91                       # Row buffer hit rate for reads
system.mem_ctrls1.writeRowHitRate               22.81                       # Row buffer hit rate for writes
system.mem_ctrls1.avgGap                     94211.14                       # Average gap between requests
system.mem_ctrls1.pageHitRate                   44.79                       # Row buffer hit rate, read and write combined
system.mem_ctrls1_0.actEnergy               316037820                       # Energy for activate commands per rank (pJ)
system.mem_ctrls1_0.preEnergy               167974290                       # Energy for precharge commands per rank (pJ)
system.mem_ctrls1_0.readEnergy              536756640                       # Energy for read commands per rank (pJ)
system.mem_ctrls1_0.writeEnergy              36033660                       # Energy for write commands per rank (pJ)
system.mem_ctrls1_0.refreshEnergy        1242187440.000000                       # Energy for refresh commands per rank (pJ)
system.mem_ctrls1_0.actBackEnergy          1414056570                       # Energy for active background per rank (pJ)
system.mem_ctrls1_0.preBackEnergy            35761440                       # Energy for precharge background per rank (pJ)
system.mem_ctrls1_0.actPowerDownEnergy     5188732800                       # Energy for active power-down per rank (pJ)
system.mem_ctrls1_0.prePowerDownEnergy      344489280                       # Energy for precharge power-down per rank (pJ)
system.mem_ctrls1_0.selfRefreshEnergy       141576990                       # Energy for self refresh per rank (pJ)
system.mem_ctrls1_0.totalEnergy            9423674490                       # Total energy per rank (pJ)
system.mem_ctrls1_0.averagePower           589.917578                       # Core power per rank (mW)
system.mem_ctrls1_0.totalIdleTime         12779841750                       # Total Idle time Per DRAM Rank
system.mem_ctrls1_0.memoryStateTime::IDLE     21372250                       # Time in different power states
system.mem_ctrls1_0.memoryStateTime::REF    525796000                       # Time in different power states
system.mem_ctrls1_0.memoryStateTime::SREF    504367750                       # Time in different power states
system.mem_ctrls1_0.memoryStateTime::PRE_PDN    897367000                       # Time in different power states
system.mem_ctrls1_0.memoryStateTime::ACT   2647403000                       # Time in different power states
system.mem_ctrls1_0.memoryStateTime::ACT_PDN  11378254500                       # Time in different power states
system.mem_ctrls1_1.actEnergy               352066260                       # Energy for activate commands per rank (pJ)
system.mem_ctrls1_1.preEnergy               187123860                       # Energy for precharge commands per rank (pJ)
system.mem_ctrls1_1.readEnergy              567444360                       # Energy for read commands per rank (pJ)
system.mem_ctrls1_1.writeEnergy              41566860                       # Energy for write commands per rank (pJ)
system.mem_ctrls1_1.refreshEnergy        1253250960.000000                       # Energy for refresh commands per rank (pJ)
system.mem_ctrls1_1.actBackEnergy          1495531800                       # Energy for active background per rank (pJ)
system.mem_ctrls1_1.preBackEnergy            40417920                       # Energy for precharge background per rank (pJ)
system.mem_ctrls1_1.actPowerDownEnergy     5138677680                       # Energy for active power-down per rank (pJ)
system.mem_ctrls1_1.prePowerDownEnergy      324743520                       # Energy for precharge power-down per rank (pJ)
system.mem_ctrls1_1.selfRefreshEnergy       142871310                       # Energy for self refresh per rank (pJ)
system.mem_ctrls1_1.totalEnergy            9544189170                       # Total energy per rank (pJ)
system.mem_ctrls1_1.averagePower           597.461741                       # Core power per rank (mW)
system.mem_ctrls1_1.totalIdleTime         12588570000                       # Total Idle time Per DRAM Rank
system.mem_ctrls1_1.memoryStateTime::IDLE     32850500                       # Time in different power states
system.mem_ctrls1_1.memoryStateTime::REF    530548000                       # Time in different power states
system.mem_ctrls1_1.memoryStateTime::SREF    473816250                       # Time in different power states
system.mem_ctrls1_1.memoryStateTime::PRE_PDN    845518500                       # Time in different power states
system.mem_ctrls1_1.memoryStateTime::ACT   2822128750                       # Time in different power states
system.mem_ctrls1_1.memoryStateTime::ACT_PDN  11269698500                       # Time in different power states
system.mem_ctrls2.pwrStateResidencyTicks::UNDEFINED  15974560500                       # Cumulative time (in ticks) in various power states
system.mem_ctrls2.bytes_read::ruby.dir_cntrl2      9911040                       # Number of bytes read from this memory
system.mem_ctrls2.bytes_read::total           9911040                       # Number of bytes read from this memory
system.mem_ctrls2.bytes_written::ruby.dir_cntrl2       956864                       # Number of bytes written to this memory
system.mem_ctrls2.bytes_written::total         956864                       # Number of bytes written to this memory
system.mem_ctrls2.num_reads::ruby.dir_cntrl2       154860                       # Number of read requests responded to by this memory
system.mem_ctrls2.num_reads::total             154860                       # Number of read requests responded to by this memory
system.mem_ctrls2.num_writes::ruby.dir_cntrl2        14951                       # Number of write requests responded to by this memory
system.mem_ctrls2.num_writes::total             14951                       # Number of write requests responded to by this memory
system.mem_ctrls2.bw_read::ruby.dir_cntrl2    620426459                       # Total read bandwidth from this memory (bytes/s)
system.mem_ctrls2.bw_read::total            620426459                       # Total read bandwidth from this memory (bytes/s)
system.mem_ctrls2.bw_write::ruby.dir_cntrl2     59899238                       # Write bandwidth from this memory (bytes/s)
system.mem_ctrls2.bw_write::total            59899238                       # Write bandwidth from this memory (bytes/s)
system.mem_ctrls2.bw_total::ruby.dir_cntrl2    680325697                       # Total bandwidth to/from this memory (bytes/s)
system.mem_ctrls2.bw_total::total           680325697                       # Total bandwidth to/from this memory (bytes/s)
system.mem_ctrls2.readReqs                     154860                       # Number of read requests accepted
system.mem_ctrls2.avgNetLat                      0.00                       # Average network latency to DRAM controller
system.mem_ctrls2.writeReqs                     14951                       # Number of write requests accepted
system.mem_ctrls2.readBursts                   154860                       # Number of DRAM read bursts, including those serviced by the write queue
system.mem_ctrls2.writeBursts                   14951                       # Number of DRAM write bursts, including those merged in the write queue
system.mem_ctrls2.bytesReadDRAM               9910528                       # Total number of bytes read from DRAM
system.mem_ctrls2.bytesReadWrQ                    512                       # Total number of bytes read from write queue
system.mem_ctrls2.bytesWritten                 955136                       # Total number of bytes written to DRAM
system.mem_ctrls2.bytesReadSys                9911040                       # Total read bytes from the system interface side
system.mem_ctrls2.bytesWrittenSys              956864                       # Total written bytes from the system interface side
system.mem_ctrls2.servicedByWrQ                     8                       # Number of DRAM read bursts serviced by the write queue
system.mem_ctrls2.mergedWrBursts                    0                       # Number of DRAM write bursts merged with an existing one
system.mem_ctrls2.neitherReadNorWriteReqs            0                       # Number of requests that are neither read nor write
system.mem_ctrls2.perBankRdBursts::0             9795                       # Per bank write bursts
system.mem_ctrls2.perBankRdBursts::1             9696                       # Per bank write bursts
system.mem_ctrls2.perBankRdBursts::2             9535                       # Per bank write bursts
system.mem_ctrls2.perBankRdBursts::3             9602                       # Per bank write bursts
system.mem_ctrls2.perBankRdBursts::4             9311                       # Per bank write bursts
system.mem_ctrls2.perBankRdBursts::5             9170                       # Per bank write bursts
system.mem_ctrls2.perBankRdBursts::6             8997                       # Per bank write bursts
system.mem_ctrls2.perBankRdBursts::7             9011                       # Per bank write bursts
system.mem_ctrls2.perBankRdBursts::8             8952                       # Per bank write bursts
system.mem_ctrls2.perBankRdBursts::9             9067                       # Per bank write bursts
system.mem_ctrls2.perBankRdBursts::10            9921                       # Per bank write bursts
system.mem_ctrls2.perBankRdBursts::11           10223                       # Per bank write bursts
system.mem_ctrls2.perBankRdBursts::12           10540                       # Per bank write bursts
system.mem_ctrls2.perBankRdBursts::13           10750                       # Per bank write bursts
system.mem_ctrls2.perBankRdBursts::14           10315                       # Per bank write bursts
system.mem_ctrls2.perBankRdBursts::15            9967                       # Per bank write bursts
system.mem_ctrls2.perBankWrBursts::0              998                       # Per bank write bursts
system.mem_ctrls2.perBankWrBursts::1              894                       # Per bank write bursts
system.mem_ctrls2.perBankWrBursts::2              851                       # Per bank write bursts
system.mem_ctrls2.perBankWrBursts::3              952                       # Per bank write bursts
system.mem_ctrls2.perBankWrBursts::4              857                       # Per bank write bursts
system.mem_ctrls2.perBankWrBursts::5              815                       # Per bank write bursts
system.mem_ctrls2.perBankWrBursts::6              741                       # Per bank write bursts
system.mem_ctrls2.perBankWrBursts::7              724                       # Per bank write bursts
system.mem_ctrls2.perBankWrBursts::8              778                       # Per bank write bursts
system.mem_ctrls2.perBankWrBursts::9              843                       # Per bank write bursts
system.mem_ctrls2.perBankWrBursts::10            1102                       # Per bank write bursts
system.mem_ctrls2.perBankWrBursts::11            1076                       # Per bank write bursts
system.mem_ctrls2.perBankWrBursts::12            1093                       # Per bank write bursts
system.mem_ctrls2.perBankWrBursts::13            1084                       # Per bank write bursts
system.mem_ctrls2.perBankWrBursts::14            1068                       # Per bank write bursts
system.mem_ctrls2.perBankWrBursts::15            1048                       # Per bank write bursts
system.mem_ctrls2.numRdRetry                        0                       # Number of times read queue was full causing retry
system.mem_ctrls2.numWrRetry                        0                       # Number of times write queue was full causing retry
system.mem_ctrls2.totGap                  15973625000                       # Total gap between requests
system.mem_ctrls2.readPktSize::0                    0                       # Read request sizes (log2)
system.mem_ctrls2.readPktSize::1                    0                       # Read request sizes (log2)
system.mem_ctrls2.readPktSize::2                    0                       # Read request sizes (log2)
system.mem_ctrls2.readPktSize::3                    0                       # Read request sizes (log2)
system.mem_ctrls2.readPktSize::4                    0                       # Read request sizes (log2)
system.mem_ctrls2.readPktSize::5                    0                       # Read request sizes (log2)
system.mem_ctrls2.readPktSize::6               154860                       # Read request sizes (log2)
system.mem_ctrls2.writePktSize::0                   0                       # Write request sizes (log2)
system.mem_ctrls2.writePktSize::1                   0                       # Write request sizes (log2)
system.mem_ctrls2.writePktSize::2                   0                       # Write request sizes (log2)
system.mem_ctrls2.writePktSize::3                   0                       # Write request sizes (log2)
system.mem_ctrls2.writePktSize::4                   0                       # Write request sizes (log2)
system.mem_ctrls2.writePktSize::5                   0                       # Write request sizes (log2)
system.mem_ctrls2.writePktSize::6               14951                       # Write request sizes (log2)
system.mem_ctrls2.rdQLenPdf::0                  76026                       # What read queue length does an incoming req see
system.mem_ctrls2.rdQLenPdf::1                  40062                       # What read queue length does an incoming req see
system.mem_ctrls2.rdQLenPdf::2                  20561                       # What read queue length does an incoming req see
system.mem_ctrls2.rdQLenPdf::3                  10468                       # What read queue length does an incoming req see
system.mem_ctrls2.rdQLenPdf::4                   4658                       # What read queue length does an incoming req see
system.mem_ctrls2.rdQLenPdf::5                   1927                       # What read queue length does an incoming req see
system.mem_ctrls2.rdQLenPdf::6                    738                       # What read queue length does an incoming req see
system.mem_ctrls2.rdQLenPdf::7                    278                       # What read queue length does an incoming req see
system.mem_ctrls2.rdQLenPdf::8                     89                       # What read queue length does an incoming req see
system.mem_ctrls2.rdQLenPdf::9                     34                       # What read queue length does an incoming req see
system.mem_ctrls2.rdQLenPdf::10                     8                       # What read queue length does an incoming req see
system.mem_ctrls2.rdQLenPdf::11                     3                       # What read queue length does an incoming req see
system.mem_ctrls2.rdQLenPdf::12                     0                       # What read queue length does an incoming req see
system.mem_ctrls2.rdQLenPdf::13                     0                       # What read queue length does an incoming req see
system.mem_ctrls2.rdQLenPdf::14                     0                       # What read queue length does an incoming req see
system.mem_ctrls2.rdQLenPdf::15                     0                       # What read queue length does an incoming req see
system.mem_ctrls2.rdQLenPdf::16                     0                       # What read queue length does an incoming req see
system.mem_ctrls2.rdQLenPdf::17                     0                       # What read queue length does an incoming req see
system.mem_ctrls2.rdQLenPdf::18                     0                       # What read queue length does an incoming req see
system.mem_ctrls2.rdQLenPdf::19                     0                       # What read queue length does an incoming req see
system.mem_ctrls2.rdQLenPdf::20                     0                       # What read queue length does an incoming req see
system.mem_ctrls2.rdQLenPdf::21                     0                       # What read queue length does an incoming req see
system.mem_ctrls2.rdQLenPdf::22                     0                       # What read queue length does an incoming req see
system.mem_ctrls2.rdQLenPdf::23                     0                       # What read queue length does an incoming req see
system.mem_ctrls2.rdQLenPdf::24                     0                       # What read queue length does an incoming req see
system.mem_ctrls2.rdQLenPdf::25                     0                       # What read queue length does an incoming req see
system.mem_ctrls2.rdQLenPdf::26                     0                       # What read queue length does an incoming req see
system.mem_ctrls2.rdQLenPdf::27                     0                       # What read queue length does an incoming req see
system.mem_ctrls2.rdQLenPdf::28                     0                       # What read queue length does an incoming req see
system.mem_ctrls2.rdQLenPdf::29                     0                       # What read queue length does an incoming req see
system.mem_ctrls2.rdQLenPdf::30                     0                       # What read queue length does an incoming req see
system.mem_ctrls2.rdQLenPdf::31                     0                       # What read queue length does an incoming req see
system.mem_ctrls2.wrQLenPdf::0                      1                       # What write queue length does an incoming req see
system.mem_ctrls2.wrQLenPdf::1                      1                       # What write queue length does an incoming req see
system.mem_ctrls2.wrQLenPdf::2                      1                       # What write queue length does an incoming req see
system.mem_ctrls2.wrQLenPdf::3                      1                       # What write queue length does an incoming req see
system.mem_ctrls2.wrQLenPdf::4                      1                       # What write queue length does an incoming req see
system.mem_ctrls2.wrQLenPdf::5                      1                       # What write queue length does an incoming req see
system.mem_ctrls2.wrQLenPdf::6                      1                       # What write queue length does an incoming req see
system.mem_ctrls2.wrQLenPdf::7                      1                       # What write queue length does an incoming req see
system.mem_ctrls2.wrQLenPdf::8                      1                       # What write queue length does an incoming req see
system.mem_ctrls2.wrQLenPdf::9                      1                       # What write queue length does an incoming req see
system.mem_ctrls2.wrQLenPdf::10                     1                       # What write queue length does an incoming req see
system.mem_ctrls2.wrQLenPdf::11                     1                       # What write queue length does an incoming req see
system.mem_ctrls2.wrQLenPdf::12                     1                       # What write queue length does an incoming req see
system.mem_ctrls2.wrQLenPdf::13                     1                       # What write queue length does an incoming req see
system.mem_ctrls2.wrQLenPdf::14                     1                       # What write queue length does an incoming req see
system.mem_ctrls2.wrQLenPdf::15                   207                       # What write queue length does an incoming req see
system.mem_ctrls2.wrQLenPdf::16                   245                       # What write queue length does an incoming req see
system.mem_ctrls2.wrQLenPdf::17                   621                       # What write queue length does an incoming req see
system.mem_ctrls2.wrQLenPdf::18                   859                       # What write queue length does an incoming req see
system.mem_ctrls2.wrQLenPdf::19                   934                       # What write queue length does an incoming req see
system.mem_ctrls2.wrQLenPdf::20                   941                       # What write queue length does an incoming req see
system.mem_ctrls2.wrQLenPdf::21                   934                       # What write queue length does an incoming req see
system.mem_ctrls2.wrQLenPdf::22                   933                       # What write queue length does an incoming req see
system.mem_ctrls2.wrQLenPdf::23                   938                       # What write queue length does an incoming req see
[...]
system.ruby.L2Cache_Controller.M.L1_GET_INSTR::total           56                      
system.ruby.L2Cache_Controller.M.L1_GETS |       11107      6.22%      6.22% |       11104      6.22%     12.45% |       10960      6.14%     18.59% |       11233      6.30%     24.88% |       10911      6.11%     31.00% |       10734      6.02%     37.01% |       10848      6.08%     43.09% |       11074      6.21%     49.30% |       11074      6.21%     55.51% |       10838      6.07%     61.58% |       11092      6.22%     67.80% |       11743      6.58%     74.38% |       12050      6.75%     81.13% |       11706      6.56%     87.69% |       11395      6.39%     94.08% |       10570      5.92%    100.00%
system.ruby.L2Cache_Controller.M.L1_GETS::total       178439                      
system.ruby.L2Cache_Controller.M.L1_GETX |        1243      6.16%      6.16% |        1303      6.45%     12.61% |        1294      6.41%     19.02% |        1197      5.93%     24.95% |        1243      6.16%     31.10% |        1178      5.83%     36.94% |        1143      5.66%     42.60% |        1301      6.44%     49.04% |        1204      5.96%     55.00% |        1259      6.24%     61.24% |        1228      6.08%     67.32% |        1186      5.87%     73.20% |        1791      8.87%     82.07% |        1117      5.53%     87.60% |        1219      6.04%     93.64% |        1285      6.36%    100.00%
system.ruby.L2Cache_Controller.M.L1_GETX::total        20191                      
system.ruby.L2Cache_Controller.M.L2_Replacement |        3720      6.28%      6.28% |        3701      6.25%     12.53% |        3665      6.19%     18.72% |        3709      6.26%     24.99% |        3614      6.10%     31.09% |        3672      6.20%     37.29% |        3667      6.19%     43.48% |        3711      6.27%     49.75% |        3792      6.40%     56.16% |        3633      6.14%     62.29% |        3710      6.27%     68.56% |        3632      6.13%     74.69% |        3704      6.26%     80.95% |        3773      6.37%     87.32% |        3767      6.36%     93.68% |        3742      6.32%    100.00%
system.ruby.L2Cache_Controller.M.L2_Replacement::total        59212                      
system.ruby.L2Cache_Controller.M.L2_Replacement_clean |        2800      6.26%      6.26% |        2719      6.08%     12.34% |        2646      5.92%     18.26% |        2805      6.27%     24.53% |        2698      6.03%     30.57% |        2750      6.15%     36.72% |        2824      6.32%     43.03% |        2834      6.34%     49.37% |        2881      6.44%     55.82% |        2716      6.07%     61.89% |        2817      6.30%     68.19% |        2812      6.29%     74.48% |        2859      6.39%     80.87% |        2860      6.40%     87.27% |        2842      6.36%     93.63% |        2850      6.37%    100.00%
system.ruby.L2Cache_Controller.M.L2_Replacement_clean::total        44713                      
system.ruby.L2Cache_Controller.MT.L1_GETS |          70      3.96%      3.96% |          70      3.96%      7.92% |          98      5.54%     13.46% |          98      5.54%     19.00% |          98      5.54%     24.55% |         140      7.92%     32.47% |         140      7.92%     40.38% |         140      7.92%     48.30% |         138      7.81%     56.11% |         138      7.81%     63.91% |         138      7.81%     71.72% |         136      7.69%     79.41% |         112      6.33%     85.75% |         112      6.33%     92.08% |          70      3.96%     96.04% |          70      3.96%    100.00%
system.ruby.L2Cache_Controller.MT.L1_GETS::total         1768                      
system.ruby.L2Cache_Controller.MT.L1_GETX |           0      0.00%      0.00% |           0      0.00%      0.00% |           0      0.00%      0.00% |           0      0.00%      0.00% |           0      0.00%      0.00% |           0      0.00%      0.00% |           0      0.00%      0.00% |           0      0.00%      0.00% |           1     20.00%     20.00% |           1     20.00%     40.00% |           1     20.00%     60.00% |           2     40.00%    100.00% |           0      0.00%    100.00% |           0      0.00%    100.00% |           0      0.00%    100.00% |           0      0.00%    100.00%
system.ruby.L2Cache_Controller.MT.L1_GETX::total            5                      
system.ruby.L2Cache_Controller.MT.L1_PUTX |       48822      6.24%      6.24% |       48753      6.24%     12.48% |       48381      6.19%     18.67% |       48904      6.26%     24.92% |       48354      6.19%     31.11% |       48311      6.18%     37.29% |       48498      6.20%     43.49% |       48889      6.25%     49.75% |       48890      6.25%     56.00% |       48436      6.20%     62.20% |       48776      6.24%     68.43% |       49348      6.31%     74.75% |       50513      6.46%     81.21% |       49470      6.33%     87.54% |       49089      6.28%     93.81% |       48360      6.19%    100.00%
system.ruby.L2Cache_Controller.MT.L1_PUTX::total       781794                      
system.ruby.L2Cache_Controller.MT.L2_Replacement |           6      6.38%      6.38% |          10     10.64%     17.02% |          10     10.64%     27.66% |           8      8.51%     36.17% |           7      7.45%     43.62% |           4      4.26%     47.87% |           8      8.51%     56.38% |           7      7.45%     63.83% |           7      7.45%     71.28% |           3      3.19%     74.47% |           6      6.38%     80.85% |           5      5.32%     86.17% |           5      5.32%     91.49% |           2      2.13%     93.62% |           5      5.32%     98.94% |           1      1.06%    100.00%
system.ruby.L2Cache_Controller.MT.L2_Replacement::total           94                      
system.ruby.L2Cache_Controller.MT.L2_Replacement_clean |          14      3.70%      3.70% |          24      6.35%     10.05% |          20      5.29%     15.34% |          23      6.08%     21.43% |          23      6.08%     27.51% |          23      6.08%     33.60% |          27      7.14%     40.74% |          26      6.88%     47.62% |          22      5.82%     53.44% |          25      6.61%     60.05% |          29      7.67%     67.72% |          26      6.88%     74.60% |          18      4.76%     79.37% |          23      6.08%     85.45% |          30      7.94%     93.39% |          25      6.61%    100.00%
system.ruby.L2Cache_Controller.MT.L2_Replacement_clean::total          378                      
system.ruby.L2Cache_Controller.M_I.L1_GETS |           0      0.00%      0.00% |           0      0.00%      0.00% |           0      0.00%      0.00% |           0      0.00%      0.00% |           1    100.00%    100.00% |           0      0.00%    100.00% |           0      0.00%    100.00% |           0      0.00%    100.00% |           0      0.00%    100.00% |           0      0.00%    100.00% |           0      0.00%    100.00% |           0      0.00%    100.00% |           0      0.00%    100.00% |           0      0.00%    100.00% |           0      0.00%    100.00% |           0      0.00%    100.00%
system.ruby.L2Cache_Controller.M_I.L1_GETS::total            1                      
system.ruby.L2Cache_Controller.M_I.Mem_Ack |        7097      6.25%      6.25% |        7044      6.21%     12.46% |        6943      6.12%     18.58% |        7072      6.23%     24.81% |        6918      6.10%     30.91% |        7063      6.22%     37.13% |        7124      6.28%     43.41% |        7126      6.28%     49.69% |        7320      6.45%     56.14% |        6850      6.04%     62.18% |        7051      6.21%     68.39% |        7038      6.20%     74.60% |        7160      6.31%     80.91% |        7234      6.38%     87.28% |        7277      6.41%     93.69% |        7155      6.31%    100.00%
system.ruby.L2Cache_Controller.M_I.Mem_Ack::total       113472                      
system.ruby.L2Cache_Controller.MT_I.WB_Data |           2      5.71%      5.71% |           6     17.14%     22.86% |           4     11.43%     34.29% |           4     11.43%     45.71% |           3      8.57%     54.29% |           2      5.71%     60.00% |           2      5.71%     65.71% |           2      5.71%     71.43% |           1      2.86%     74.29% |           2      5.71%     80.00% |           0      0.00%     80.00% |           3      8.57%     88.57% |           1      2.86%     91.43% |           0      0.00%     91.43% |           2      5.71%     97.14% |           1      2.86%    100.00%
system.ruby.L2Cache_Controller.MT_I.WB_Data::total           35                      
system.ruby.L2Cache_Controller.MT_I.Ack_all |           4      6.78%      6.78% |           4      6.78%     13.56% |           6     10.17%     23.73% |           4      6.78%     30.51% |           4      6.78%     37.29% |           2      3.39%     40.68% |           6     10.17%     50.85% |           5      8.47%     59.32% |           6     10.17%     69.49% |           1      1.69%     71.19% |           6     10.17%     81.36% |           2      3.39%     84.75% |           4      6.78%     91.53% |           2      3.39%     94.92% |           3      5.08%    100.00% |           0      0.00%    100.00%
system.ruby.L2Cache_Controller.MT_I.Ack_all::total           59                      
system.ruby.L2Cache_Controller.MCT_I.WB_Data |          13      3.71%      3.71% |          22      6.29%     10.00% |          19      5.43%     15.43% |          22      6.29%     21.71% |          20      5.71%     27.43% |          21      6.00%     33.43% |          26      7.43%     40.86% |          24      6.86%     47.71% |          20      5.71%     53.43% |          23      6.57%     60.00% |          27      7.71%     67.71% |          23      6.57%     74.29% |          15      4.29%     78.57% |          21      6.00%     84.57% |          29      8.29%     92.86% |          25      7.14%    100.00%
system.ruby.L2Cache_Controller.MCT_I.WB_Data::total          350                      
system.ruby.L2Cache_Controller.MCT_I.Ack_all |           1      3.57%      3.57% |           2      7.14%     10.71% |           1      3.57%     14.29% |           1      3.57%     17.86% |           3     10.71%     28.57% |           2      7.14%     35.71% |           1      3.57%     39.29% |           2      7.14%     46.43% |           2      7.14%     53.57% |           2      7.14%     60.71% |           2      7.14%     67.86% |           3     10.71%     78.57% |           3     10.71%     89.29% |           2      7.14%     96.43% |           1      3.57%    100.00% |           0      0.00%    100.00%
system.ruby.L2Cache_Controller.MCT_I.Ack_all::total           28                      
system.ruby.L2Cache_Controller.I_I.L1_GET_INSTR |           0      0.00%      0.00% |           0      0.00%      0.00% |           1    100.00%    100.00% |           0      0.00%    100.00% |           0      0.00%    100.00% |           0      0.00%    100.00% |           0      0.00%    100.00% |           0      0.00%    100.00% |           0      0.00%    100.00% |           0      0.00%    100.00% |           0      0.00%    100.00% |           0      0.00%    100.00% |           0      0.00%    100.00% |           0      0.00%    100.00% |           0      0.00%    100.00% |           0      0.00%    100.00%
system.ruby.L2Cache_Controller.I_I.L1_GET_INSTR::total            1                      
system.ruby.L2Cache_Controller.I_I.Ack_all |         555      6.15%      6.15% |         589      6.52%     12.67% |         601      6.66%     19.32% |         524      5.80%     25.13% |         573      6.35%     31.47% |         610      6.76%     38.23% |         593      6.57%     44.80% |         544      6.02%     50.82% |         615      6.81%     57.63% |         471      5.22%     62.85% |         484      5.36%     68.21% |         560      6.20%     74.41% |         569      6.30%     80.71% |         574      6.36%     87.07% |         632      7.00%     94.06% |         536      5.94%    100.00%
system.ruby.L2Cache_Controller.I_I.Ack_all::total         9030                      
system.ruby.L2Cache_Controller.S_I.Ack   |           2      4.44%      4.44% |           1      2.22%      6.67% |           1      2.22%      8.89% |           3      6.67%     15.56% |           3      6.67%     22.22% |           4      8.89%     31.11% |           5     11.11%     42.22% |           4      8.89%     51.11% |           3      6.67%     57.78% |           2      4.44%     62.22% |           5     11.11%     73.33% |           3      6.67%     80.00% |           5     11.11%     91.11% |           2      4.44%     95.56% |           1      2.22%     97.78% |           1      2.22%    100.00%
system.ruby.L2Cache_Controller.S_I.Ack::total           45                      
system.ruby.L2Cache_Controller.S_I.Ack_all |           2      4.44%      4.44% |           1      2.22%      6.67% |           1      2.22%      8.89% |           3      6.67%     15.56% |           3      6.67%     22.22% |           4      8.89%     31.11% |           5     11.11%     42.22% |           4      8.89%     51.11% |           3      6.67%     57.78% |           2      4.44%     62.22% |           5     11.11%     73.33% |           3      6.67%     80.00% |           5     11.11%     91.11% |           2      4.44%     95.56% |           1      2.22%     97.78% |           1      2.22%    100.00%
system.ruby.L2Cache_Controller.S_I.Ack_all::total           45                      
system.ruby.L2Cache_Controller.ISS.Mem_Data |       29188      6.26%      6.26% |       28973      6.22%     12.48% |       28728      6.16%     18.64% |       29120      6.25%     24.89% |       28847      6.19%     31.08% |       29073      6.24%     37.32% |       29174      6.26%     43.57% |       29172      6.26%     49.83% |       29323      6.29%     56.12% |       29091      6.24%     62.37% |       29162      6.26%     68.62% |       29158      6.26%     74.88% |       29406      6.31%     81.19% |       29338      6.29%     87.48% |       29156      6.26%     93.74% |       29197      6.26%    100.00%
system.ruby.L2Cache_Controller.ISS.Mem_Data::total       466106                      
system.ruby.L2Cache_Controller.IS.Mem_Data |        1356      6.39%      6.39% |        1368      6.44%     12.83% |        1490      7.02%     19.85% |        1292      6.09%     25.94% |        1349      6.36%     32.30% |        1335      6.29%     38.58% |        1281      6.04%     44.62% |        1288      6.07%     50.69% |        1366      6.44%     57.12% |        1160      5.46%     62.59% |        1253      5.90%     68.49% |        1274      6.00%     74.49% |        1235      5.82%     80.31% |        1306      6.15%     86.46% |        1524      7.18%     93.64% |        1349      6.36%    100.00%
system.ruby.L2Cache_Controller.IS.Mem_Data::total        21226                      
system.ruby.L2Cache_Controller.IM.Mem_Data |        8208      6.22%      6.22% |        8297      6.28%     12.50% |        8320      6.30%     18.80% |        8292      6.28%     25.08% |        8289      6.28%     31.35% |        8278      6.27%     37.62% |        8285      6.27%     43.89% |        8291      6.28%     50.17% |        8232      6.23%     56.40% |        8197      6.21%     62.61% |        8244      6.24%     68.85% |        8213      6.22%     75.07% |        8203      6.21%     81.28% |        8245      6.24%     87.53% |        8243      6.24%     93.77% |        8230      6.23%    100.00%
system.ruby.L2Cache_Controller.IM.Mem_Data::total       132067                      
system.ruby.L2Cache_Controller.SS_MB.Exclusive_Unblock |          42      3.91%      3.91% |          42      3.91%      7.83% |          70      6.52%     14.35% |          56      5.22%     19.57% |          56      5.22%     24.79% |          84      7.83%     32.62% |          84      7.83%     40.45% |          84      7.83%     48.28% |          83      7.74%     56.01% |          83      7.74%     63.75% |          83      7.74%     71.48% |          82      7.64%     79.12% |          70      6.52%     85.65% |          70      6.52%     92.17% |          42      3.91%     96.09% |          42      3.91%    100.00%
system.ruby.L2Cache_Controller.SS_MB.Exclusive_Unblock::total         1073                      
system.ruby.L2Cache_Controller.MT_MB.Exclusive_Unblock |       49746      6.24%      6.24% |       49677      6.23%     12.48% |       49302      6.19%     18.67% |       49842      6.26%     24.92% |       49290      6.19%     31.11% |       49263      6.18%     37.29% |       49450      6.21%     43.49% |       49838      6.25%     49.75% |       49834      6.25%     56.00% |       49386      6.20%     62.20% |       49727      6.24%     68.44% |       50302      6.31%     74.76% |       51450      6.46%     81.21% |       50406      6.33%     87.54% |       50013      6.28%     93.82% |       49282      6.18%    100.00%
system.ruby.L2Cache_Controller.MT_MB.Exclusive_Unblock::total       796808                      
system.ruby.L2Cache_Controller.MT_IIB.WB_Data |          70      3.98%      3.98% |          70      3.98%      7.95% |          98      5.57%     13.52% |          97      5.51%     19.03% |          96      5.45%     24.49% |         139      7.90%     32.39% |         140      7.95%     40.34% |         138      7.84%     48.18% |         138      7.84%     56.02% |         138      7.84%     63.86% |         138      7.84%     71.70% |         136      7.73%     79.43% |         112      6.36%     85.80% |         111      6.31%     92.10% |          69      3.92%     96.02% |          70      3.98%    100.00%
system.ruby.L2Cache_Controller.MT_IIB.WB_Data::total         1760                      
system.ruby.L2Cache_Controller.MT_IIB.Unblock |           0      0.00%      0.00% |           0      0.00%      0.00% |           0      0.00%      0.00% |           1     12.50%     12.50% |           2     25.00%     37.50% |           1     12.50%     50.00% |           0      0.00%     50.00% |           2     25.00%     75.00% |           0      0.00%     75.00% |           0      0.00%     75.00% |           0      0.00%     75.00% |           0      0.00%     75.00% |           0      0.00%     75.00% |           1     12.50%     87.50% |           1     12.50%    100.00% |           0      0.00%    100.00%
system.ruby.L2Cache_Controller.MT_IIB.Unblock::total            8                      
system.ruby.L2Cache_Controller.MT_IB.WB_Data |           0      0.00%      0.00% |           0      0.00%      0.00% |           0      0.00%      0.00% |           1     12.50%     12.50% |           2     25.00%     37.50% |           1     12.50%     50.00% |           0      0.00%     50.00% |           2     25.00%     75.00% |           0      0.00%     75.00% |           0      0.00%     75.00% |           0      0.00%     75.00% |           0      0.00%     75.00% |           0      0.00%     75.00% |           1     12.50%     87.50% |           1     12.50%    100.00% |           0      0.00%    100.00%
system.ruby.L2Cache_Controller.MT_IB.WB_Data::total            8                      
system.ruby.L2Cache_Controller.MT_SB.Unblock |          70      3.98%      3.98% |          70      3.98%      7.95% |          98      5.57%     13.52% |          97      5.51%     19.03% |          96      5.45%     24.49% |         139      7.90%     32.39% |         140      7.95%     40.34% |         138      7.84%     48.18% |         138      7.84%     56.02% |         138      7.84%     63.86% |         138      7.84%     71.70% |         136      7.73%     79.43% |         112      6.36%     85.80% |         111      6.31%     92.10% |          69      3.92%     96.02% |          70      3.98%    100.00%
system.ruby.L2Cache_Controller.MT_SB.Unblock::total         1760                      

---------- End Simulation Statistics   ----------
