
---------- Begin Simulation Statistics ----------
sim_seconds                                  0.015981                       # Number of seconds simulated
sim_ticks                                 15980642000                       # Number of ticks simulated
final_tick                                15980642000                       # Number of ticks from beginning of simulation (restored from checkpoints and never reset)
sim_freq                                 1000000000000                       # Frequency of simulated ticks
host_inst_rate                                  56804                       # Simulator instruction rate (inst/s)
host_op_rate                                    98562                       # Simulator op (including micro ops) rate (op/s)
host_tick_rate                               19696841                       # Simulator tick rate (ticks/s)
host_mem_usage                                2044236                       # Number of bytes of host memory used
host_seconds                                   811.33                       # Real time elapsed on the host
sim_insts                                    46086705                       # Number of instructions simulated
sim_ops                                      79965976                       # Number of ops (including micro ops) simulated
system.voltage_domain.voltage                       1                       # Voltage in Volts
system.clk_domain.clock                          1000                       # Clock period in ticks
system.mem_ctrls0.pwrStateResidencyTicks::UNDEFINED  15980642000                       # Cumulative time (in ticks) in various power states
system.mem_ctrls0.bytes_read::ruby.dir_cntrl0     10450560                       # Number of bytes read from this memory
system.mem_ctrls0.bytes_read::total          10450560                       # Number of bytes read from this memory
system.mem_ctrls0.bytes_written::ruby.dir_cntrl0      1215552                       # Number of bytes written to this memory
system.mem_ctrls0.bytes_written::total        1215552                       # Number of bytes written to this memory
system.mem_ctrls0.num_reads::ruby.dir_cntrl0       163290                       # Number of read requests responded to by this memory
system.mem_ctrls0.num_reads::total             163290                       # Number of read requests responded to by this memory
system.mem_ctrls0.num_writes::ruby.dir_cntrl0        18993                       # Number of write requests responded to by this memory
system.mem_ctrls0.num_writes::total             18993                       # Number of write requests responded to by this memory
system.mem_ctrls0.bw_read::ruby.dir_cntrl0    653951199                       # Total read bandwidth from this memory (bytes/s)
system.mem_ctrls0.bw_read::total            653951199                       # Total read bandwidth from this memory (bytes/s)
system.mem_ctrls0.bw_write::ruby.dir_cntrl0     76064028                       # Write bandwidth from this memory (bytes/s)
system.mem_ctrls0.bw_write::total            76064028                       # Write bandwidth from this memory (bytes/s)
system.mem_ctrls0.bw_total::ruby.dir_cntrl0    730015227                       # Total bandwidth to/from this memory (bytes/s)
system.mem_ctrls0.bw_total::total           730015227                       # Total bandwidth to/from this memory (bytes/s)
system.mem_ctrls0.readReqs                     163290                       # Number of read requests accepted
system.mem_ctrls0.avgNetLat                      0.00                       # Average network latency to DRAM controller
system.mem_ctrls0.writeReqs                     18993                       # Number of write requests accepted
system.mem_ctrls0.readBursts                   163290                       # Number of DRAM read bursts, including those serviced by the write queue
system.mem_ctrls0.writeBursts                   18993                       # Number of DRAM write bursts, including those merged in the write queue
system.mem_ctrls0.bytesReadDRAM              10450240                       # Total number of bytes read from DRAM
system.mem_ctrls0.bytesReadWrQ                    320                       # Total number of bytes read from write queue
system.mem_ctrls0.bytesWritten                1214592                       # Total number of bytes written to DRAM
system.mem_ctrls0.bytesReadSys               10450560                       # Total read bytes from the system interface side
system.mem_ctrls0.bytesWrittenSys             1215552                       # Total written bytes from the system interface side
system.mem_ctrls0.servicedByWrQ                     5                       # Number of DRAM read bursts serviced by the write queue
system.mem_ctrls0.mergedWrBursts                    0                       # Number of DRAM write bursts merged with an existing one
system.mem_ctrls0.neitherReadNorWriteReqs            0                       # Number of requests that are neither read nor write
system.mem_ctrls0.perBankRdBursts::0            10534                       # Per bank write bursts
system.mem_ctrls0.perBankRdBursts::1            10485                       # Per bank write bursts
system.mem_ctrls0.perBankRdBursts::2            10203                       # Per bank write bursts
system.mem_ctrls0.perBankRdBursts::3            10255                       # Per bank write bursts
system.mem_ctrls0.perBankRdBursts::4             9760                       # Per bank write bursts
system.mem_ctrls0.perBankRdBursts::5             9570                       # Per bank write bursts
system.mem_ctrls0.perBankRdBursts::6             9567                       # Per bank write bursts
system.mem_ctrls0.perBankRdBursts::7             9857                       # Per bank write bursts
system.mem_ctrls0.perBankRdBursts::8             9684                       # Per bank write bursts
system.mem_ctrls0.perBankRdBursts::9             9899                       # Per bank write bursts
system.mem_ctrls0.perBankRdBursts::10           10647                       # Per bank write bursts
system.mem_ctrls0.perBankRdBursts::11           10491                       # Per bank write bursts
system.mem_ctrls0.perBankRdBursts::12           10958                       # Per bank write bursts
system.mem_ctrls0.perBankRdBursts::13           10916                       # Per bank write bursts
system.mem_ctrls0.perBankRdBursts::14           10308                       # Per bank write bursts
system.mem_ctrls0.perBankRdBursts::15           10151                       # Per bank write bursts
system.mem_ctrls0.perBankWrBursts::0             1400                       # Per bank write bursts
system.mem_ctrls0.perBankWrBursts::1             1262                       # Per bank write bursts
system.mem_ctrls0.perBankWrBursts::2             1224                       # Per bank write bursts
system.mem_ctrls0.perBankWrBursts::3             1322                       # Per bank write bursts
system.mem_ctrls0.perBankWrBursts::4             1028                       # Per bank write bursts
system.mem_ctrls0.perBankWrBursts::5             1007                       # Per bank write bursts
system.mem_ctrls0.perBankWrBursts::6              955                       # Per bank write bursts
system.mem_ctrls0.perBankWrBursts::7             1058                       # Per bank write bursts
system.mem_ctrls0.perBankWrBursts::8             1012                       # Per bank write bursts
system.mem_ctrls0.perBankWrBursts::9             1034                       # Per bank write bursts
system.mem_ctrls0.perBankWrBursts::10            1327                       # Per bank write bursts
system.mem_ctrls0.perBankWrBursts::11            1299                       # Per bank write bursts
system.mem_ctrls0.perBankWrBursts::12            1335                       # Per bank write bursts
system.mem_ctrls0.perBankWrBursts::13            1391                       # Per bank write bursts
system.mem_ctrls0.perBankWrBursts::14            1186                       # Per bank write bursts
system.mem_ctrls0.perBankWrBursts::15            1138                       # Per bank write bursts
system.mem_ctrls0.numRdRetry                        0                       # Number of times read queue was full causing retry
system.mem_ctrls0.numWrRetry                        0                       # Number of times write queue was full causing retry
system.mem_ctrls0.totGap                  15979208500                       # Total gap between requests
system.mem_ctrls0.readPktSize::0                    0                       # Read request sizes (log2)
system.mem_ctrls0.readPktSize::1                    0                       # Read request sizes (log2)
system.mem_ctrls0.readPktSize::2                    0                       # Read request sizes (log2)
system.mem_ctrls0.readPktSize::3                    0                       # Read request sizes (log2)
system.mem_ctrls0.readPktSize::4                    0                       # Read request sizes (log2)
system.mem_ctrls0.readPktSize::5                    0                       # Read request sizes (log2)
system.mem_ctrls0.readPktSize::6               163290                       # Read request sizes (log2)
system.mem_ctrls0.writePktSize::0                   0                       # Write request sizes (log2)
system.mem_ctrls0.writePktSize::1                   0                       # Write request sizes (log2)
system.mem_ctrls0.writePktSize::2                   0                       # Write request sizes (log2)
system.mem_ctrls0.writePktSize::3                   0                       # Write request sizes (log2)
system.mem_ctrls0.writePktSize::4                   0                       # Write request sizes (log2)
system.mem_ctrls0.writePktSize::5                   0                       # Write request sizes (log2)
system.mem_ctrls0.writePktSize::6               18993                       # Write request sizes (log2)
system.mem_ctrls0.rdQLenPdf::0                  80411                       # What read queue length does an incoming req see
system.mem_ctrls0.rdQLenPdf::1                  43161                       # What read queue length does an incoming req see
system.mem_ctrls0.rdQLenPdf::2                  21909                       # What read queue length does an incoming req see
system.mem_ctrls0.rdQLenPdf::3                  10607                       # What read queue length does an incoming req see
system.mem_ctrls0.rdQLenPdf::4                   4647                       # What read queue length does an incoming req see
system.mem_ctrls0.rdQLenPdf::5                   1719                       # What read queue length does an incoming req see
system.mem_ctrls0.rdQLenPdf::6                    584                       # What read queue length does an incoming req see
system.mem_ctrls0.rdQLenPdf::7                    179                       # What read queue length does an incoming req see
system.mem_ctrls0.rdQLenPdf::8                     53                       # What read queue length does an incoming req see
system.mem_ctrls0.rdQLenPdf::9                     14                       # What read queue length does an incoming req see
system.mem_ctrls0.rdQLenPdf::10                     1                       # What read queue length does an incoming req see
system.mem_ctrls0.rdQLenPdf::11                     0                       # What read queue length does an incoming req see
system.mem_ctrls0.rdQLenPdf::12                     0                       # What read queue length does an incoming req see
system.mem_ctrls0.rdQLenPdf::13                     0                       # What read queue length does an incoming req see
system.mem_ctrls0.rdQLenPdf::14                     0                       # What read queue length does an incoming req see
system.mem_ctrls0.rdQLenPdf::15                     0                       # What read queue length does an incoming req see
system.mem_ctrls0.rdQLenPdf::16                     0                       # What read queue length does an incoming req see
system.mem_ctrls0.rdQLenPdf::17                     0                       # What read queue length does an incoming req see
system.mem_ctrls0.rdQLenPdf::18                     0                       # What read queue length does an incoming req see
system.mem_ctrls0.rdQLenPdf::19                     0                       # What read queue length does an incoming req see
system.mem_ctrls0.rdQLenPdf::20                     0                       # What read queue length does an incoming req see
system.mem_ctrls0.rdQLenPdf::21                     0                       # What read queue length does an incoming req see
system.mem_ctrls0.rdQLenPdf::22                     0                       # What read queue length does an incoming req see
system.mem_ctrls0.rdQLenPdf::23                     0                       # What read queue length does an incoming req see
system.mem_ctrls0.rdQLenPdf::24                     0                       # What read queue length does an incoming req see
system.mem_ctrls0.rdQLenPdf::25                     0                       # What read queue length does an incoming req see
system.mem_ctrls0.rdQLenPdf::26                     0                       # What read queue length does an incoming req see
system.mem_ctrls0.rdQLenPdf::27                     0                       # What read queue length does an incoming req see
system.mem_ctrls0.rdQLenPdf::28                     0                       # What read queue length does an incoming req see
system.mem_ctrls0.rdQLenPdf::29                     0                       # What read queue length does an incoming req see
system.mem_ctrls0.rdQLenPdf::30                     0                       # What read queue length does an incoming req see
system.mem_ctrls0.rdQLenPdf::31                     0                       # What read queue length does an incoming req see
system.mem_ctrls0.wrQLenPdf::0                      1                       # What write queue length does an incoming req see
system.mem_ctrls0.wrQLenPdf::1                      1                       # What write queue length does an incoming req see
system.mem_ctrls0.wrQLenPdf::2                      1                       # What write queue length does an incoming req see
system.mem_ctrls0.wrQLenPdf::3                      1                       # What write queue length does an incoming req see
system.mem_ctrls0.wrQLenPdf::4                      1                       # What write queue length does an incoming req see
system.mem_ctrls0.wrQLenPdf::5                      1                       # What write queue length does an incoming req see
system.mem_ctrls0.wrQLenPdf::6                      1                       # What write queue length does an incoming req see
system.mem_ctrls0.wrQLenPdf::7                      1                       # What write queue length does an incoming req see
system.mem_ctrls0.wrQLenPdf::8                      1                       # What write queue length does an incoming req see
system.mem_ctrls0.wrQLenPdf::9                      1                       # What write queue length does an incoming req see
system.mem_ctrls0.wrQLenPdf::10                     1                       # What write queue length does an incoming req see
system.mem_ctrls0.wrQLenPdf::11                     1                       # What write queue length does an incoming req see
system.mem_ctrls0.wrQLenPdf::12                     1                       # What write queue length does an incoming req see
system.mem_ctrls0.wrQLenPdf::13                     1                       # What write queue length does an incoming req see
system.mem_ctrls0.wrQLenPdf::14                     1                       # What write queue length does an incoming req see
system.mem_ctrls0.wrQLenPdf::15                   266                       # What write queue length does an incoming req see
system.mem_ctrls0.wrQLenPdf::16                   311                       # What write queue length does an incoming req see
system.mem_ctrls0.wrQLenPdf::17                   740                       # What write queue length does an incoming req see
system.mem_ctrls0.wrQLenPdf::18                  1079                       # What write queue length does an incoming req see
system.mem_ctrls0.wrQLenPdf::19                  1153                       # What write queue length does an incoming req see
system.mem_ctrls0.wrQLenPdf::20                  1178                       # What write queue length does an incoming req see
system.mem_ctrls0.wrQLenPdf::21                  1192                       # What write queue length does an incoming req see
system.mem_ctrls0.wrQLenPdf::22                  1195                       # What write queue length does an incoming req see
system.mem_ctrls0.wrQLenPdf::23                  1196                       # What write queue length does an incoming req see
system.mem_ctrls0.wrQLenPdf::24                  1186                       # What write queue length does an incoming req see
system.mem_ctrls0.wrQLenPdf::25                  1186                       # What write queue length does an incoming req see
system.mem_ctrls0.wrQLenPdf::26                  1175                       # What write queue length does an incoming req see
system.mem_ctrls0.wrQLenPdf::27                  1187                       # What write queue length does an incoming req see
system.mem_ctrls0.wrQLenPdf::28                  1174                       # What write queue length does an incoming req see
system.mem_ctrls0.wrQLenPdf::29                  1171                       # What write queue length does an incoming req see
system.mem_ctrls0.wrQLenPdf::30                  1184                       # What write queue length does an incoming req see
system.mem_ctrls0.wrQLenPdf::31                  1172                       # What write queue length does an incoming req see
system.mem_ctrls0.wrQLenPdf::32                  1172                       # What write queue length does an incoming req see
system.mem_ctrls0.wrQLenPdf::33                    42                       # What write queue length does an incoming req see
system.mem_ctrls0.wrQLenPdf::34                    17                       # What write queue length does an incoming req see
system.mem_ctrls0.wrQLenPdf::35                     2                       # What write queue length does an incoming req see
system.mem_ctrls0.wrQLenPdf::36                     0                       # What write queue length does an incoming req see
system.mem_ctrls0.wrQLenPdf::37                     0                       # What write queue length does an incoming req see
system.mem_ctrls0.wrQLenPdf::38                     0                       # What write queue length does an incoming req see
system.mem_ctrls0.wrQLenPdf::39                     0                       # What write queue length does an incoming req see
system.mem_ctrls0.wrQLenPdf::40                     0                       # What write queue length does an incoming req see
system.mem_ctrls0.wrQLenPdf::41                     0                       # What write queue length does an incoming req see
system.mem_ctrls0.wrQLenPdf::42                     0                       # What write queue length does an incoming req see
system.mem_ctrls0.wrQLenPdf::43                     0                       # What write queue length does an incoming req see
system.mem_ctrls0.wrQLenPdf::44                     0                       # What write queue length does an incoming req see
system.mem_ctrls0.wrQLenPdf::45                     0                       # What write queue length does an incoming req see
system.mem_ctrls0.wrQLenPdf::46                     0                       # What write queue length does an incoming req see
system.mem_ctrls0.wrQLenPdf::47                     0                       # What write queue length does an incoming req see
system.mem_ctrls0.wrQLenPdf::48                     0                       # What write queue length does an incoming req see
system.mem_ctrls0.wrQLenPdf::49                     0                       # What write queue length does an incoming req see
system.mem_ctrls0.wrQLenPdf::50                     0                       # What write queue length does an incoming req see
system.mem_ctrls0.wrQLenPdf::51                     0                       # What write queue length does an incoming req see
system.mem_ctrls0.wrQLenPdf::52                     0                       # What write queue length does an incoming req see
system.mem_ctrls0.wrQLenPdf::53                     0                       # What write queue length does an incoming req see
system.mem_ctrls0.wrQLenPdf::54                     0                       # What write queue length does an incoming req see
system.mem_ctrls0.wrQLenPdf::55                     0                       # What write queue length does an incoming req see
system.mem_ctrls0.wrQLenPdf::56                     0                       # What write queue length does an incoming req see
system.mem_ctrls0.wrQLenPdf::57                     0                       # What write queue length does an incoming req see
system.mem_ctrls0.wrQLenPdf::58                     0                       # What write queue length does an incoming req see
system.mem_ctrls0.wrQLenPdf::59                     0                       # What write queue length does an incoming req see
system.mem_ctrls0.wrQLenPdf::60                     0                       # What write queue length does an incoming req see
system.mem_ctrls0.wrQLenPdf::61                     0                       # What write queue length does an incoming req see
system.mem_ctrls0.wrQLenPdf::62                     0                       # What write queue length does an incoming req see
system.mem_ctrls0.wrQLenPdf::63                     0                       # What write queue length does an incoming req see
system.mem_ctrls0.bytesPerActivate::samples       105116                       # Bytes accessed per row activation
system.mem_ctrls0.bytesPerActivate::mean   110.966780                       # Bytes accessed per row activation
system.mem_ctrls0.bytesPerActivate::gmean    87.723755                       # Bytes accessed per row activation
system.mem_ctrls0.bytesPerActivate::stdev   116.565849                       # Bytes accessed per row activation
system.mem_ctrls0.bytesPerActivate::0-127        74085     70.48%     70.48% # Bytes accessed per row activation
system.mem_ctrls0.bytesPerActivate::128-255        21567     20.52%     91.00% # Bytes accessed per row activation
system.mem_ctrls0.bytesPerActivate::256-383         4389      4.18%     95.17% # Bytes accessed per row activation
system.mem_ctrls0.bytesPerActivate::384-511         2222      2.11%     97.29% # Bytes accessed per row activation
system.mem_ctrls0.bytesPerActivate::512-639         1302      1.24%     98.52% # Bytes accessed per row activation
system.mem_ctrls0.bytesPerActivate::640-767          885      0.84%     99.37% # Bytes accessed per row activation
system.mem_ctrls0.bytesPerActivate::768-895          228      0.22%     99.58% # Bytes accessed per row activation
system.mem_ctrls0.bytesPerActivate::896-1023          225      0.21%     99.80% # Bytes accessed per row activation
system.mem_ctrls0.bytesPerActivate::1024-1151          213      0.20%    100.00% # Bytes accessed per row activation
system.mem_ctrls0.bytesPerActivate::total       105116                       # Bytes accessed per row activation
system.mem_ctrls0.rdPerTurnAround::samples         1148                       # Reads before turning the bus around for writes
system.mem_ctrls0.rdPerTurnAround::mean    142.234321                       # Reads before turning the bus around for writes
system.mem_ctrls0.rdPerTurnAround::gmean    49.836176                       # Reads before turning the bus around for writes
system.mem_ctrls0.rdPerTurnAround::stdev  1988.386682                       # Reads before turning the bus around for writes
system.mem_ctrls0.rdPerTurnAround::0-4095         1147     99.91%     99.91% # Reads before turning the bus around for writes
system.mem_ctrls0.rdPerTurnAround::65536-69631            1      0.09%    100.00% # Reads before turning the bus around for writes
system.mem_ctrls0.rdPerTurnAround::total         1148                       # Reads before turning the bus around for writes
system.mem_ctrls0.wrPerTurnAround::samples         1148                       # Writes before turning the bus around for reads
system.mem_ctrls0.wrPerTurnAround::mean     16.531359                       # Writes before turning the bus around for reads
system.mem_ctrls0.wrPerTurnAround::gmean    16.509083                       # Writes before turning the bus around for reads
system.mem_ctrls0.wrPerTurnAround::stdev     0.874850                       # Writes before turning the bus around for reads
system.mem_ctrls0.wrPerTurnAround::16             827     72.04%     72.04% # Writes before turning the bus around for reads
system.mem_ctrls0.wrPerTurnAround::17              39      3.40%     75.44% # Writes before turning the bus around for reads
system.mem_ctrls0.wrPerTurnAround::18             275     23.95%     99.39% # Writes before turning the bus around for reads
system.mem_ctrls0.wrPerTurnAround::19               7      0.61%    100.00% # Writes before turning the bus around for reads
system.mem_ctrls0.wrPerTurnAround::total         1148                       # Writes before turning the bus around for reads
system.mem_ctrls0.totQLat                  4824583000                       # Total ticks spent queuing
system.mem_ctrls0.totMemAccLat             7886176750                       # Total ticks spent from burst creation until serviced by the DRAM
system.mem_ctrls0.totBusLat                 816425000                       # Total ticks spent in databus transfers
system.mem_ctrls0.avgQLat                    29547.01                       # Average queueing delay per DRAM burst
system.mem_ctrls0.avgBusLat                   5000.00                       # Average bus latency per DRAM burst
system.mem_ctrls0.avgMemAccLat               48297.01                       # Average memory access latency per DRAM burst
system.mem_ctrls0.avgRdBW                      653.93                       # Average DRAM read bandwidth in MiByte/s
system.mem_ctrls0.avgWrBW                       76.00                       # Average achieved write bandwidth in MiByte/s
system.mem_ctrls0.avgRdBWSys                   653.95                       # Average system read bandwidth in MiByte/s
system.mem_ctrls0.avgWrBWSys                    76.06                       # Average system write bandwidth in MiByte/s
system.mem_ctrls0.peakBW                     12800.00                       # Theoretical peak bandwidth in MiByte/s
system.mem_ctrls0.busUtil                        5.70                       # Data bus utilization in percentage
system.mem_ctrls0.busUtilRead                    5.11                       # Data bus utilization in percentage for reads
system.mem_ctrls0.busUtilWrite                   0.59                       # Data bus utilization in percentage for writes
system.mem_ctrls0.avgRdQLen                      1.56                       # Average read queue length when enqueuing
system.mem_ctrls0.avgWrQLen                     12.98                       # Average write queue length when enqueuing
system.mem_ctrls0.readRowHits                   73373                       # Number of row buffer hits during reads
system.mem_ctrls0.writeRowHits                   3767                       # Number of row buffer hits during writes
system.mem_ctrls0.readRowHitRate                44.94                       # Row buffer hit rate for reads
system.mem_ctrls0.writeRowHitRate               19.83                       # Row buffer hit rate for writes
system.mem_ctrls0.avgGap                     87661.54                       # Average gap between requests
system.mem_ctrls0.pageHitRate                   42.32                       # Row buffer hit rate, read and write combined
system.mem_ctrls0_0.actEnergy               368202660                       # Energy for activate commands per rank (pJ)
system.mem_ctrls0_0.preEnergy               195685380                       # Energy for precharge commands per rank (pJ)
system.mem_ctrls0_0.readEnergy              572849340                       # Energy for read commands per rank (pJ)
system.mem_ctrls0_0.writeEnergy              48316320                       # Energy for write commands per rank (pJ)
system.mem_ctrls0_0.refreshEnergy        1256324160.000000                       # Energy for refresh commands per rank (pJ)
system.mem_ctrls0_0.actBackEnergy          1511016990                       # Energy for active background per rank (pJ)
system.mem_ctrls0_0.preBackEnergy            33683040                       # Energy for precharge background per rank (pJ)
system.mem_ctrls0_0.actPowerDownEnergy     5297081250                       # Energy for active power-down per rank (pJ)
system.mem_ctrls0_0.prePowerDownEnergy      274837920                       # Energy for precharge power-down per rank (pJ)
system.mem_ctrls0_0.selfRefreshEnergy        73706445                       # Energy for self refresh per rank (pJ)
system.mem_ctrls0_0.totalEnergy            9631797705                       # Total energy per rank (pJ)
system.mem_ctrls0_0.averagePower           602.716549                       # Core power per rank (mW)
system.mem_ctrls0_0.totalIdleTime         12579308750                       # Total Idle time Per DRAM Rank
system.mem_ctrls0_0.memoryStateTime::IDLE     17370250                       # Time in different power states
system.mem_ctrls0_0.memoryStateTime::REF    531632000                       # Time in different power states
system.mem_ctrls0_0.memoryStateTime::SREF    246952750                       # Time in different power states
system.mem_ctrls0_0.memoryStateTime::PRE_PDN    715534000                       # Time in different power states
system.mem_ctrls0_0.memoryStateTime::ACT   2852331000                       # Time in different power states
system.mem_ctrls0_0.memoryStateTime::ACT_PDN  11616822000                       # Time in different power states
system.mem_ctrls0_1.actEnergy               382375560                       # Energy for activate commands per rank (pJ)
system.mem_ctrls0_1.preEnergy               203229840                       # Energy for precharge commands per rank (pJ)
system.mem_ctrls0_1.readEnergy              593005560                       # Energy for read commands per rank (pJ)
system.mem_ctrls0_1.writeEnergy              50748840                       # Energy for write commands per rank (pJ)
system.mem_ctrls0_1.refreshEnergy        1258782720.000000                       # Energy for refresh commands per rank (pJ)
system.mem_ctrls0_1.actBackEnergy          1566781800                       # Energy for active background per rank (pJ)
system.mem_ctrls0_1.preBackEnergy            35253120                       # Energy for precharge background per rank (pJ)
system.mem_ctrls0_1.actPowerDownEnergy     5373711480                       # Energy for active power-down per rank (pJ)
system.mem_ctrls0_1.prePowerDownEnergy      199616160                       # Energy for precharge power-down per rank (pJ)
system.mem_ctrls0_1.selfRefreshEnergy        44622360                       # Energy for self refresh per rank (pJ)
system.mem_ctrls0_1.totalEnergy            9708507090                       # Total energy per rank (pJ)
system.mem_ctrls0_1.averagePower           607.516693                       # Core power per rank (mW)
system.mem_ctrls0_1.totalIdleTime         12452046500                       # Total Idle time Per DRAM Rank
system.mem_ctrls0_1.memoryStateTime::IDLE     21286000                       # Time in different power states
system.mem_ctrls0_1.memoryStateTime::REF    532642000                       # Time in different power states
system.mem_ctrls0_1.memoryStateTime::SREF    147782000                       # Time in different power states
system.mem_ctrls0_1.memoryStateTime::PRE_PDN    519646750                       # Time in different power states
system.mem_ctrls0_1.memoryStateTime::ACT   2974667500                       # Time in different power states
system.mem_ctrls0_1.memoryStateTime::ACT_PDN  11784617750                       # Time in different power states
system.mem_ctrls1.pwrStateResidencyTicks::UNDEFINED  15980642000                       # Cumulative time (in ticks) in various power states
system.mem_ctrls1.bytes_read::ruby.dir_cntrl1     10425792                       # Number of bytes read from this memory
system.mem_ctrls1.bytes_read::total          10425792                       # Number of bytes read from this memory
system.mem_ctrls1.bytes_written::ruby.dir_cntrl1      1211456                       # Number of bytes written to this memory
system.mem_ctrls1.bytes_written::total        1211456                       # Number of bytes written to this memory
system.mem_ctrls1.num_reads::ruby.dir_cntrl1       162903                       # Number of read requests responded to by this memory
system.mem_ctrls1.num_reads::total             162903                       # Number of read requests responded to by this memory
system.mem_ctrls1.num_writes::ruby.dir_cntrl1        18929                       # Number of write requests responded to by this memory
system.mem_ctrls1.num_writes::total             18929                       # Number of write requests responded to by this memory
system.mem_ctrls1.bw_read::ruby.dir_cntrl1    652401324                       # Total read bandwidth from this memory (bytes/s)
system.mem_ctrls1.bw_read::total            652401324                       # Total read bandwidth from this memory (bytes/s)
system.mem_ctrls1.bw_write::ruby.dir_cntrl1     75807718                       # Write bandwidth from this memory (bytes/s)
system.mem_ctrls1.bw_write::total            75807718                       # Write bandwidth from this memory (bytes/s)
system.mem_ctrls1.bw_total::ruby.dir_cntrl1    728209042                       # Total bandwidth to/from this memory (bytes/s)
system.mem_ctrls1.bw_total::total           728209042                       # Total bandwidth to/from this memory (bytes/s)
system.mem_ctrls1.readReqs                     162903                       # Number of read requests accepted
system.mem_ctrls1.avgNetLat                      0.00                       # Average network latency to DRAM controller
system.mem_ctrls1.writeReqs                     18929                       # Number of write requests accepted
system.mem_ctrls1.readBursts                   162903                       # Number of DRAM read bursts, including those serviced by the write queue
system.mem_ctrls1.writeBursts                   18929                       # Number of DRAM write bursts, including those merged in the write queue
system.mem_ctrls1.bytesReadDRAM              10425600                       # Total number of bytes read from DRAM
system.mem_ctrls1.bytesReadWrQ                    192                       # Total number of bytes read from write queue
system.mem_ctrls1.bytesWritten                1209920                       # Total number of bytes written to DRAM
system.mem_ctrls1.bytesReadSys               10425792                       # Total read bytes from the system interface side
system.mem_ctrls1.bytesWrittenSys             1211456                       # Total written bytes from the system interface side
system.mem_ctrls1.servicedByWrQ                     3                       # Number of DRAM read bursts serviced by the write queue
system.mem_ctrls1.mergedWrBursts                    0                       # Number of DRAM write bursts merged with an existing one
system.mem_ctrls1.neitherReadNorWriteReqs            0                       # Number of requests that are neither read nor write
system.mem_ctrls1.perBankRdBursts::0            10413                       # Per bank write bursts
system.mem_ctrls1.perBankRdBursts::1            10375                       # Per bank write bursts
system.mem_ctrls1.perBankRdBursts::2            10227                       # Per bank write bursts
system.mem_ctrls1.perBankRdBursts::3            10239                       # Per bank write bursts
system.mem_ctrls1.perBankRdBursts::4             9745                       # Per bank write bursts
system.mem_ctrls1.perBankRdBursts::5             9603                       # Per bank write bursts
system.mem_ctrls1.perBankRdBursts::6             9570                       # Per bank write bursts
system.mem_ctrls1.perBankRdBursts::7             9813                       # Per bank write bursts
system.mem_ctrls1.perBankRdBursts::8             9649                       # Per bank write bursts
system.mem_ctrls1.perBankRdBursts::9             9826                       # Per bank write bursts
system.mem_ctrls1.perBankRdBursts::10           10639                       # Per bank write bursts
system.mem_ctrls1.perBankRdBursts::11           10498                       # Per bank write bursts
system.mem_ctrls1.perBankRdBursts::12           10964                       # Per bank write bursts
system.mem_ctrls1.perBankRdBursts::13           10900                       # Per bank write bursts
system.mem_ctrls1.perBankRdBursts::14           10289                       # Per bank write bursts
system.mem_ctrls1.perBankRdBursts::15           10150                       # Per bank write bursts
system.mem_ctrls1.perBankWrBursts::0             1338                       # Per bank write bursts
system.mem_ctrls1.perBankWrBursts::1             1236                       # Per bank write bursts
system.mem_ctrls1.perBankWrBursts::2             1239                       # Per bank write bursts
system.mem_ctrls1.perBankWrBursts::3             1288                       # Per bank write bursts
system.mem_ctrls1.perBankWrBursts::4             1014                       # Per bank write bursts
system.mem_ctrls1.perBankWrBursts::5             1012                       # Per bank write bursts
system.mem_ctrls1.perBankWrBursts::6              973                       # Per bank write bursts
system.mem_ctrls1.perBankWrBursts::7             1065                       # Per bank write bursts
system.mem_ctrls1.perBankWrBursts::8             1001                       # Per bank write bursts
system.mem_ctrls1.perBankWrBursts::9             1036                       # Per bank write bursts
system.mem_ctrls1.perBankWrBursts::10            1333                       # Per bank write bursts
system.mem_ctrls1.perBankWrBursts::11            1301                       # Per bank write bursts
system.mem_ctrls1.perBankWrBursts::12            1373                       # Per bank write bursts
system.mem_ctrls1.perBankWrBursts::13            1381                       # Per bank write bursts
system.mem_ctrls1.perBankWrBursts::14            1177                       # Per bank write bursts
system.mem_ctrls1.perBankWrBursts::15            1138                       # Per bank write bursts
system.mem_ctrls1.numRdRetry                        0                       # Number of times read queue was full causing retry
system.mem_ctrls1.numWrRetry                        0                       # Number of times write queue was full causing retry
system.mem_ctrls1.totGap                  15980048500                       # Total gap between requests
system.mem_ctrls1.readPktSize::0                    0                       # Read request sizes (log2)
system.mem_ctrls1.readPktSize::1                    0                       # Read request sizes (log2)
system.mem_ctrls1.readPktSize::2                    0                       # Read request sizes (log2)
system.mem_ctrls1.readPktSize::3                    0                       # Read request sizes (log2)
system.mem_ctrls1.readPktSize::4                    0                       # Read request sizes (log2)
system.mem_ctrls1.readPktSize::5                    0                       # Read request sizes (log2)
system.mem_ctrls1.readPktSize::6               162903                       # Read request sizes (log2)
system.mem_ctrls1.writePktSize::0                   0                       # Write request sizes (log2)
system.mem_ctrls1.writePktSize::1                   0                       # Write request sizes (log2)
system.mem_ctrls1.writePktSize::2                   0                       # Write request sizes (log2)
system.mem_ctrls1.writePktSize::3                   0                       # Write request sizes (log2)
system.mem_ctrls1.writePktSize::4                   0                       # Write request sizes (log2)
system.mem_ctrls1.writePktSize::5                   0                       # Write request sizes (log2)
system.mem_ctrls1.writePktSize::6               18929                       # Write request sizes (log2)
system.mem_ctrls1.rdQLenPdf::0                  81466                       # What read queue length does an incoming req see
system.mem_ctrls1.rdQLenPdf::1                  42781                       # What read queue length does an incoming req see
system.mem_ctrls1.rdQLenPdf::2                  21518                       # What read queue length does an incoming req see
system.mem_ctrls1.rdQLenPdf::3                  10103                       # What read queue length does an incoming req see
system.mem_ctrls1.rdQLenPdf::4                   4279                       # What read queue length does an incoming req see
system.mem_ctrls1.rdQLenPdf::5                   1653                       # What read queue length does an incoming req see
system.mem_ctrls1.rdQLenPdf::6                    642                       # What read queue length does an incoming req see
system.mem_ctrls1.rdQLenPdf::7                    257                       # What read queue length does an incoming req see
system.mem_ctrls1.rdQLenPdf::8                    116                       # What read queue length does an incoming req see
system.mem_ctrls1.rdQLenPdf::9                     58                       # What read queue length does an incoming req see
system.mem_ctrls1.rdQLenPdf::10                    21                       # What read queue length does an incoming req see
system.mem_ctrls1.rdQLenPdf::11                     6                       # What read queue length does an incoming req see
system.mem_ctrls1.rdQLenPdf::12                     0                       # What read queue length does an incoming req see
system.mem_ctrls1.rdQLenPdf::13                     0                       # What read queue length does an incoming req see
system.mem_ctrls1.rdQLenPdf::14                     0                       # What read queue length does an incoming req see
system.mem_ctrls1.rdQLenPdf::15                     0                       # What read queue length does an incoming req see
system.mem_ctrls1.rdQLenPdf::16                     0                       # What read queue length does an incoming req see
system.mem_ctrls1.rdQLenPdf::17                     0                       # What read queue length does an incoming req see
system.mem_ctrls1.rdQLenPdf::18                     0                       # What read queue length does an incoming req see
system.mem_ctrls1.rdQLenPdf::19                     0                       # What read queue length does an incoming req see
system.mem_ctrls1.rdQLenPdf::20                     0                       # What read queue length does an incoming req see
system.mem_ctrls1.rdQLenPdf::21                     0                       # What read queue length does an incoming req see
system.mem_ctrls1.rdQLenPdf::22                     0                       # What read queue length does an incoming req see
system.mem_ctrls1.rdQLenPdf::23                     0                       # What read queue length does an incoming req see
system.mem_ctrls1.rdQLenPdf::24                     0                       # What read queue length does an incoming req see
system.mem_ctrls1.rdQLenPdf::25                     0                       # What read queue length does an incoming req see
system.mem_ctrls1.rdQLenPdf::26                     0                       # What read queue length does an incoming req see
system.mem_ctrls1.rdQLenPdf::27                     0                       # What read queue length does an incoming req see
system.mem_ctrls1.rdQLenPdf::28                     0                       # What read queue length does an incoming req see
system.mem_ctrls1.rdQLenPdf::29                     0                       # What read queue length does an incoming req see
system.mem_ctrls1.rdQLenPdf::30                     0                       # What read queue length does an incoming req see
system.mem_ctrls1.rdQLenPdf::31                     0                       # What read queue length does an incoming req see
system.mem_ctrls1.wrQLenPdf::0                      1                       # What write queue length does an incoming req see
system.mem_ctrls1.wrQLenPdf::1                      1                       # What write queue length does an incoming req see
system.mem_ctrls1.wrQLenPdf::2                      1                       # What write queue length does an incoming req see
system.mem_ctrls1.wrQLenPdf::3                      1                       # What write queue length does an incoming req see
system.mem_ctrls1.wrQLenPdf::4                      1                       # What write queue length does an incoming req see
system.mem_ctrls1.wrQLenPdf::5                      1                       # What write queue length does an incoming req see
system.mem_ctrls1.wrQLenPdf::6                      1                       # What write queue length does an incoming req see
system.mem_ctrls1.wrQLenPdf::7                      1                       # What write queue length does an incoming req see
system.mem_ctrls1.wrQLenPdf::8                      1                       # What write queue length does an incoming req see
system.mem_ctrls1.wrQLenPdf::9                      1                       # What write queue length does an incoming req see
system.mem_ctrls1.wrQLenPdf::10                     1                       # What write queue length does an incoming req see
system.mem_ctrls1.wrQLenPdf::11                     1                       # What write queue length does an incoming req see
system.mem_ctrls1.wrQLenPdf::12                     1                       # What write queue length does an incoming req see
system.mem_ctrls1.wrQLenPdf::13                     1                       # What write queue length does an incoming req see
system.mem_ctrls1.wrQLenPdf::14                     1                       # What write queue length does an incoming req see
system.mem_ctrls1.wrQLenPdf::15                   267                       # What write queue length does an incoming req see
system.mem_ctrls1.wrQLenPdf::16                   322                       # What write queue length does an incoming req see
system.mem_ctrls1.wrQLenPdf::17                   748                       # What write queue length does an incoming req see
system.mem_ctrls1.wrQLenPdf::18                  1064                       # What write queue length does an incoming req see
system.mem_ctrls1.wrQLenPdf::19                  1158                       # What write queue length does an incoming req see
system.mem_ctrls1.wrQLenPdf::20                  1185                       # What write queue length does an incoming req see
system.mem_ctrls1.wrQLenPdf::21                  1194                       # What write queue length does an incoming req see
system.mem_ctrls1.wrQLenPdf::22                  1174                       # What write queue length does an incoming req see
system.mem_ctrls1.wrQLenPdf::23                  1183                       # What write queue length does an incoming req see
system.mem_ctrls1.wrQLenPdf::24                  1194                       # What write queue length does an incoming req see
system.mem_ctrls1.wrQLenPdf::25                  1186                       # What write queue length does an incoming req see
system.mem_ctrls1.wrQLenPdf::26                  1177                       # What write queue length does an incoming req see
system.mem_ctrls1.wrQLenPdf::27                  1164                       # What write queue length does an incoming req see
system.mem_ctrls1.wrQLenPdf::28                  1180                       # What write queue length does an incoming req see
system.mem_ctrls1.wrQLenPdf::29                  1181                       # What write queue length does an incoming req see
system.mem_ctrls1.wrQLenPdf::30                  1165                       # What write queue length does an incoming req see
system.mem_ctrls1.wrQLenPdf::31                  1164                       # What write queue length does an incoming req see
system.mem_ctrls1.wrQLenPdf::32                  1167                       # What write queue length does an incoming req see
system.mem_ctrls1.wrQLenPdf::33                    36                       # What write queue length does an incoming req see
system.mem_ctrls1.wrQLenPdf::34                     3                       # What write queue length does an incoming req see
system.mem_ctrls1.wrQLenPdf::35                     1                       # What write queue length does an incoming req see
system.mem_ctrls1.wrQLenPdf::36                     1                       # What write queue length does an incoming req see
system.mem_ctrls1.wrQLenPdf::37                     0                       # What write queue length does an incoming req see
system.mem_ctrls1.wrQLenPdf::38                     0                       # What write queue length does an incoming req see
system.mem_ctrls1.wrQLenPdf::39                     0                       # What write queue length does an incoming req see
system.mem_ctrls1.wrQLenPdf::40                     0                       # What write queue length does an incoming req see
system.mem_ctrls1.wrQLenPdf::41                     0                       # What write queue length does an incoming req see
system.mem_ctrls1.wrQLenPdf::42                     0                       # What write queue length does an incoming req see
system.mem_ctrls1.wrQLenPdf::43                     0                       # What write queue length does an incoming req see
system.mem_ctrls1.wrQLenPdf::44                     0                       # What write queue length does an incoming req see
system.mem_ctrls1.wrQLenPdf::45                     0                       # What write queue length does an incoming req see
system.mem_ctrls1.wrQLenPdf::46                     0                       # What write queue length does an incoming req see
system.mem_ctrls1.wrQLenPdf::47                     0                       # What write queue length does an incoming req see
system.mem_ctrls1.wrQLenPdf::48                     0                       # What write queue length does an incoming req see
system.mem_ctrls1.wrQLenPdf::49                     0                       # What write queue length does an incoming req see
system.mem_ctrls1.wrQLenPdf::50                     0                       # What write queue length does an incoming req see
system.mem_ctrls1.wrQLenPdf::51                     0                       # What write queue length does an incoming req see
system.mem_ctrls1.wrQLenPdf::52                     0                       # What write queue length does an incoming req see
system.mem_ctrls1.wrQLenPdf::53                     0                       # What write queue length does an incoming req see
system.mem_ctrls1.wrQLenPdf::54                     0                       # What write queue length does an incoming req see
system.mem_ctrls1.wrQLenPdf::55                     0                       # What write queue length does an incoming req see
system.mem_ctrls1.wrQLenPdf::56                     0                       # What write queue length does an incoming req see
system.mem_ctrls1.wrQLenPdf::57                     0                       # What write queue length does an incoming req see
system.mem_ctrls1.wrQLenPdf::58                     0                       # What write queue length does an incoming req see
system.mem_ctrls1.wrQLenPdf::59                     0                       # What write queue length does an incoming req see
system.mem_ctrls1.wrQLenPdf::60                     0                       # What write queue length does an incoming req see
system.mem_ctrls1.wrQLenPdf::61                     0                       # What write queue length does an incoming req see
system.mem_ctrls1.wrQLenPdf::62                     0                       # What write queue length does an incoming req see
system.mem_ctrls1.wrQLenPdf::63                     0                       # What write queue length does an incoming req see
system.mem_ctrls1.bytesPerActivate::samples       104740                       # Bytes accessed per row activation
system.mem_ctrls1.bytesPerActivate::mean   111.085889                       # Bytes accessed per row activation
system.mem_ctrls1.bytesPerActivate::gmean    87.789995                       # Bytes accessed per row activation
system.mem_ctrls1.bytesPerActivate::stdev   116.757311                       # Bytes accessed per row activation
system.mem_ctrls1.bytesPerActivate::0-127        73685     70.35%     70.35% # Bytes accessed per row activation
system.mem_ctrls1.bytesPerActivate::128-255        21656     20.68%     91.03% # Bytes accessed per row activation
system.mem_ctrls1.bytesPerActivate::256-383         4271      4.08%     95.10% # Bytes accessed per row activation
system.mem_ctrls1.bytesPerActivate::384-511         2273      2.17%     97.27% # Bytes accessed per row activation
system.mem_ctrls1.bytesPerActivate::512-639         1302      1.24%     98.52% # Bytes accessed per row activation
system.mem_ctrls1.bytesPerActivate::640-767          900      0.86%     99.38% # Bytes accessed per row activation
system.mem_ctrls1.bytesPerActivate::768-895          232      0.22%     99.60% # Bytes accessed per row activation
system.mem_ctrls1.bytesPerActivate::896-1023          197      0.19%     99.79% # Bytes accessed per row activation
system.mem_ctrls1.bytesPerActivate::1024-1151          224      0.21%    100.00% # Bytes accessed per row activation
system.mem_ctrls1.bytesPerActivate::total       104740                       # Bytes accessed per row activation
system.mem_ctrls1.rdPerTurnAround::samples         1143                       # Reads before turning the bus around for writes
system.mem_ctrls1.rdPerTurnAround::mean    142.506562                       # Reads before turning the bus around for writes
system.mem_ctrls1.rdPerTurnAround::gmean    49.299870                       # Reads before turning the bus around for writes
system.mem_ctrls1.rdPerTurnAround::stdev  1978.183940                       # Reads before turning the bus around for writes
system.mem_ctrls1.rdPerTurnAround::0-4095         1142     99.91%     99.91% # Reads before turning the bus around for writes
system.mem_ctrls1.rdPerTurnAround::65536-69631            1      0.09%    100.00% # Reads before turning the bus around for writes
system.mem_ctrls1.rdPerTurnAround::total         1143                       # Reads before turning the bus around for writes
system.mem_ctrls1.wrPerTurnAround::samples         1143                       # Writes before turning the bus around for reads
system.mem_ctrls1.wrPerTurnAround::mean     16.539808                       # Writes before turning the bus around for reads
system.mem_ctrls1.wrPerTurnAround::gmean    16.517297                       # Writes before turning the bus around for reads
system.mem_ctrls1.wrPerTurnAround::stdev     0.879788                       # Writes before turning the bus around for reads
system.mem_ctrls1.wrPerTurnAround::16             816     71.39%     71.39% # Writes before turning the bus around for reads
system.mem_ctrls1.wrPerTurnAround::17              46      4.02%     75.42% # Writes before turning the bus around for reads
system.mem_ctrls1.wrPerTurnAround::18             273     23.88%     99.30% # Writes before turning the bus around for reads
system.mem_ctrls1.wrPerTurnAround::19               7      0.61%     99.91% # Writes before turning the bus around for reads
system.mem_ctrls1.wrPerTurnAround::20               1      0.09%    100.00% # Writes before turning the bus around for reads
system.mem_ctrls1.wrPerTurnAround::total         1143                       # Writes before turning the bus around for reads
system.mem_ctrls1.totQLat                  4826723250                       # Total ticks spent queuing
system.mem_ctrls1.totMemAccLat             7881098250                       # Total ticks spent from burst creation until serviced by the DRAM
system.mem_ctrls1.totBusLat                 814500000                       # Total ticks spent in databus transfers
system.mem_ctrls1.avgQLat                    29629.98                       # Average queueing delay per DRAM burst
system.mem_ctrls1.avgBusLat                   5000.00                       # Average bus latency per DRAM burst
system.mem_ctrls1.avgMemAccLat               48379.98                       # Average memory access latency per DRAM burst
system.mem_ctrls1.avgRdBW                      652.39                       # Average DRAM read bandwidth in MiByte/s
system.mem_ctrls1.avgWrBW                       75.71                       # Average achieved write bandwidth in MiByte/s
system.mem_ctrls1.avgRdBWSys                   652.40                       # Average system read bandwidth in MiByte/s
system.mem_ctrls1.avgWrBWSys                    75.81                       # Average system write bandwidth in MiByte/s
system.mem_ctrls1.peakBW                     12800.00                       # Theoretical peak bandwidth in MiByte/s
system.mem_ctrls1.busUtil                        5.69                       # Data bus utilization in percentage
system.mem_ctrls1.busUtilRead                    5.10                       # Data bus utilization in percentage for reads
system.mem_ctrls1.busUtilWrite                   0.59                       # Data bus utilization in percentage for writes
system.mem_ctrls1.avgRdQLen                      1.56                       # Average read queue length when enqueuing
system.mem_ctrls1.avgWrQLen                     12.98                       # Average write queue length when enqueuing
system.mem_ctrls1.readRowHits                   73331                       # Number of row buffer hits during reads
system.mem_ctrls1.writeRowHits                   3729                       # Number of row buffer hits during writes
system.mem_ctrls1.readRowHitRate                45.02                       # Row buffer hit rate for reads
system.mem_ctrls1.writeRowHitRate               19.70                       # Row buffer hit rate for writes
system.mem_ctrls1.avgGap                     87883.59                       # Average gap between requests
system.mem_ctrls1.pageHitRate                   42.38                       # Row buffer hit rate, read and write combined
system.mem_ctrls1_0.actEnergy               366117780                       # Energy for activate commands per rank (pJ)
system.mem_ctrls1_0.preEnergy               194588625                       # Energy for precharge commands per rank (pJ)
system.mem_ctrls1_0.readEnergy              571092900                       # Energy for read commands per rank (pJ)
system.mem_ctrls1_0.writeEnergy              47841300                       # Energy for write commands per rank (pJ)
system.mem_ctrls1_0.refreshEnergy        1259397360.000000                       # Energy for refresh commands per rank (pJ)
system.mem_ctrls1_0.actBackEnergy          1509595410                       # Energy for active background per rank (pJ)
system.mem_ctrls1_0.preBackEnergy            34284480                       # Energy for precharge background per rank (pJ)
system.mem_ctrls1_0.actPowerDownEnergy     5280397920                       # Energy for active power-down per rank (pJ)
system.mem_ctrls1_0.prePowerDownEnergy      302171520                       # Energy for precharge power-down per rank (pJ)
system.mem_ctrls1_0.selfRefreshEnergy        65805150                       # Energy for self refresh per rank (pJ)
system.mem_ctrls1_0.totalEnergy            9631421565                       # Total energy per rank (pJ)
system.mem_ctrls1_0.averagePower           602.693012                       # Core power per rank (mW)
system.mem_ctrls1_0.totalIdleTime         12580493750                       # Total Idle time Per DRAM Rank
system.mem_ctrls1_0.memoryStateTime::IDLE     19043500                       # Time in different power states
system.mem_ctrls1_0.memoryStateTime::REF    532920000                       # Time in different power states
system.mem_ctrls1_0.memoryStateTime::SREF    213832750                       # Time in different power states
system.mem_ctrls1_0.memoryStateTime::PRE_PDN    786686000                       # Time in different power states
system.mem_ctrls1_0.memoryStateTime::ACT   2847716750                       # Time in different power states
system.mem_ctrls1_0.memoryStateTime::ACT_PDN  11580443000                       # Time in different power states
system.mem_ctrls1_1.actEnergy               381761520                       # Energy for activate commands per rank (pJ)
system.mem_ctrls1_1.preEnergy               202899675                       # Energy for precharge commands per rank (pJ)
system.mem_ctrls1_1.readEnergy              592013100                       # Energy for read commands per rank (pJ)
system.mem_ctrls1_1.writeEnergy              50842800                       # Energy for write commands per rank (pJ)
system.mem_ctrls1_1.refreshEnergy        1258782720.000000                       # Energy for refresh commands per rank (pJ)
system.mem_ctrls1_1.actBackEnergy          1565133360                       # Energy for active background per rank (pJ)
system.mem_ctrls1_1.preBackEnergy            33576960                       # Energy for precharge background per rank (pJ)
system.mem_ctrls1_1.actPowerDownEnergy     5373234960                       # Energy for active power-down per rank (pJ)
system.mem_ctrls1_1.prePowerDownEnergy      209710080                       # Energy for precharge power-down per rank (pJ)
system.mem_ctrls1_1.selfRefreshEnergy        39316770                       # Energy for self refresh per rank (pJ)
system.mem_ctrls1_1.totalEnergy            9707377125                       # Total energy per rank (pJ)
system.mem_ctrls1_1.averagePower           607.445985                       # Core power per rank (mW)
system.mem_ctrls1_1.totalIdleTime         12460965000                       # Total Idle time Per DRAM Rank
system.mem_ctrls1_1.memoryStateTime::IDLE     15857250                       # Time in different power states
system.mem_ctrls1_1.memoryStateTime::REF    532636000                       # Time in different power states
system.mem_ctrls1_1.memoryStateTime::SREF    131126000                       # Time in different power states
system.mem_ctrls1_1.memoryStateTime::PRE_PDN    545896500                       # Time in different power states
system.mem_ctrls1_1.memoryStateTime::ACT   2971035250                       # Time in different power states
system.mem_ctrls1_1.memoryStateTime::ACT_PDN  11784091000                       # Time in different power states
system.mem_ctrls2.pwrStateResidencyTicks::UNDEFINED  15980642000                       # Cumulative time (in ticks) in various power states
system.mem_ctrls2.bytes_read::ruby.dir_cntrl2     10439168                       # Number of bytes read from this memory
system.mem_ctrls2.bytes_read::total          10439168                       # Number of bytes read from this memory
system.mem_ctrls2.bytes_written::ruby.dir_cntrl2      1219264                       # Number of bytes written to this memory
system.mem_ctrls2.bytes_written::total        1219264                       # Number of bytes written to this memory
system.mem_ctrls2.num_reads::ruby.dir_cntrl2       163112                       # Number of read requests responded to by this memory
system.mem_ctrls2.num_reads::total             163112                       # Number of read requests responded to by this memory
system.mem_ctrls2.num_writes::ruby.dir_cntrl2        19051                       # Number of write requests responded to by this memory
system.mem_ctrls2.num_writes::total             19051                       # Number of write requests responded to by this memory
system.mem_ctrls2.bw_read::ruby.dir_cntrl2    653238337                       # Total read bandwidth from this memory (bytes/s)
system.mem_ctrls2.bw_read::total            653238337                       # Total read bandwidth from this memory (bytes/s)
system.mem_ctrls2.bw_write::ruby.dir_cntrl2     76296309                       # Write bandwidth from this memory (bytes/s)
system.mem_ctrls2.bw_write::total            76296309                       # Write bandwidth from this memory (bytes/s)
system.mem_ctrls2.bw_total::ruby.dir_cntrl2    729534646                       # Total bandwidth to/from this memory (bytes/s)
system.mem_ctrls2.bw_total::total           729534646                       # Total bandwidth to/from this memory (bytes/s)
system.mem_ctrls2.readReqs                     163112                       # Number of read requests accepted
system.mem_ctrls2.avgNetLat                      0.00                       # Average network latency to DRAM controller
system.mem_ctrls2.writeReqs                     19051                       # Number of write requests accepted
system.mem_ctrls2.readBursts                   163112                       # Number of DRAM read bursts, including those serviced by the write queue
system.mem_ctrls2.writeBursts                   19051                       # Number of DRAM write bursts, including those merged in the write queue
system.mem_ctrls2.bytesReadDRAM              10438400                       # Total number of bytes read from DRAM
system.mem_ctrls2.bytesReadWrQ                    768                       # Total number of bytes read from write queue
system.mem_ctrls2.bytesWritten                1217600                       # Total number of bytes written to DRAM
system.mem_ctrls2.bytesReadSys               10439168                       # Total read bytes from the system interface side
system.mem_ctrls2.bytesWrittenSys             1219264                       # Total written bytes from the system interface side
system.mem_ctrls2.servicedByWrQ                    12                       # Number of DRAM read bursts serviced by the write queue
system.mem_ctrls2.mergedWrBursts                    0                       # Number of DRAM write bursts merged with an existing one
system.mem_ctrls2.neitherReadNorWriteReqs            0                       # Number of requests that are neither read nor write
system.mem_ctrls2.perBankRdBursts::0            10395                       # Per bank write bursts
system.mem_ctrls2.perBankRdBursts::1            10369                       # Per bank write bursts
system.mem_ctrls2.perBankRdBursts::2            10190                       # Per bank write bursts
system.mem_ctrls2.perBankRdBursts::3            10231                       # Per bank write bursts
system.mem_ctrls2.perBankRdBursts::4             9750                       # Per bank write bursts
system.mem_ctrls2.perBankRdBursts::5             9539                       # Per bank write bursts
system.mem_ctrls2.perBankRdBursts::6             9582                       # Per bank write bursts
system.mem_ctrls2.perBankRdBursts::7             9913                       # Per bank write bursts
system.mem_ctrls2.perBankRdBursts::8             9645                       # Per bank write bursts
system.mem_ctrls2.perBankRdBursts::9             9865                       # Per bank write bursts
system.mem_ctrls2.perBankRdBursts::10           10631                       # Per bank write bursts
system.mem_ctrls2.perBankRdBursts::11           10464                       # Per bank write bursts
system.mem_ctrls2.perBankRdBursts::12           10958                       # Per bank write bursts
system.mem_ctrls2.perBankRdBursts::13           11011                       # Per bank write bursts
system.mem_ctrls2.perBankRdBursts::14           10404                       # Per bank write bursts
system.mem_ctrls2.perBankRdBursts::15           10153                       # Per bank write bursts
system.mem_ctrls2.perBankWrBursts::0             1347                       # Per bank write bursts
system.mem_ctrls2.perBankWrBursts::1             1246                       # Per bank write bursts
system.mem_ctrls2.perBankWrBursts::2             1228                       # Per bank write bursts
system.mem_ctrls2.perBankWrBursts::3             1311                       # Per bank write bursts
system.mem_ctrls2.perBankWrBursts::4             1014                       # Per bank write bursts
system.mem_ctrls2.perBankWrBursts::5              974                       # Per bank write bursts
system.mem_ctrls2.perBankWrBursts::6              969                       # Per bank write bursts
system.mem_ctrls2.perBankWrBursts::7             1093                       # Per bank write bursts
system.mem_ctrls2.perBankWrBursts::8              994                       # Per bank write bursts
system.mem_ctrls2.perBankWrBursts::9             1033                       # Per bank write bursts
system.mem_ctrls2.perBankWrBursts::10            1322                       # Per bank write bursts
system.mem_ctrls2.perBankWrBursts::11            1299                       # Per bank write bursts
system.mem_ctrls2.perBankWrBursts::12            1360                       # Per bank write bursts
system.mem_ctrls2.perBankWrBursts::13            1474                       # Per bank write bursts
system.mem_ctrls2.perBankWrBursts::14            1211                       # Per bank write bursts
system.mem_ctrls2.perBankWrBursts::15            1150                       # Per bank write bursts
system.mem_ctrls2.numRdRetry                        0                       # Number of times read queue was full causing retry
system.mem_ctrls2.numWrRetry                        0                       # Number of times write queue was full causing retry
system.mem_ctrls2.totGap                  15979701000                       # Total gap between requests
system.mem_ctrls2.readPktSize::0                    0                       # Read request sizes (log2)
system.mem_ctrls2.readPktSize::1                    0                       # Read request sizes (log2)
system.mem_ctrls2.readPktSize::2                    0                       # Read request sizes (log2)
system.mem_ctrls2.readPktSize::3                    0                       # Read request sizes (log2)
system.mem_ctrls2.readPktSize::4                    0                       # Read request sizes (log2)
system.mem_ctrls2.readPktSize::5                    0                       # Read request sizes (log2)
system.mem_ctrls2.readPktSize::6               163112                       # Read request sizes (log2)
system.mem_ctrls2.writePktSize::0                   0                       # Write request sizes (log2)
system.mem_ctrls2.writePktSize::1                   0                       # Write request sizes (log2)
system.mem_ctrls2.writePktSize::2                   0                       # Write request sizes (log2)
system.mem_ctrls2.writePktSize::3                   0                       # Write request sizes (log2)
system.mem_ctrls2.writePktSize::4                   0                       # Write request sizes (log2)
system.mem_ctrls2.writePktSize::5                   0                       # Write request sizes (log2)
system.mem_ctrls2.writePktSize::6               19051                       # Write request sizes (log2)
system.mem_ctrls2.rdQLenPdf::0                  80646                       # What read queue length does an incoming req see
system.mem_ctrls2.rdQLenPdf::1                  43440                       # What read queue length does an incoming req see
system.mem_ctrls2.rdQLenPdf::2                  22004                       # What read queue length does an incoming req see
system.mem_ctrls2.rdQLenPdf::3                  10484                       # What read queue length does an incoming req see
system.mem_ctrls2.rdQLenPdf::4                   4347                       # What read queue length does an incoming req see
system.mem_ctrls2.rdQLenPdf::5                   1560                       # What read queue length does an incoming req see
system.mem_ctrls2.rdQLenPdf::6                    446                       # What read queue length does an incoming req see
system.mem_ctrls2.rdQLenPdf::7                    126                       # What read queue length does an incoming req see
system.mem_ctrls2.rdQLenPdf::8                     31                       # What read queue length does an incoming req see
system.mem_ctrls2.rdQLenPdf::9                      9                       # What read queue length does an incoming req see
system.mem_ctrls2.rdQLenPdf::10                     5                       # What read queue length does an incoming req see
system.mem_ctrls2.rdQLenPdf::11                     1                       # What read queue length does an incoming req see
system.mem_ctrls2.rdQLenPdf::12                     1                       # What read queue length does an incoming req see
system.mem_ctrls2.rdQLenPdf::13                     0                       # What read queue length does an incoming req see
system.mem_ctrls2.rdQLenPdf::14                     0                       # What read queue length does an incoming req see
system.mem_ctrls2.rdQLenPdf::15                     0                       # What read queue length does an incoming req see
system.mem_ctrls2.rdQLenPdf::16                     0                       # What read queue length does an incoming req see
system.mem_ctrls2.rdQLenPdf::17                     0                       # What read queue length does an incoming req see
system.mem_ctrls2.rdQLenPdf::18                     0                       # What read queue length does an incoming req see
system.mem_ctrls2.rdQLenPdf::19                     0                       # What read queue length does an incoming req see
system.mem_ctrls2.rdQLenPdf::20                     0                       # What read queue length does an incoming req see
system.mem_ctrls2.rdQLenPdf::21                     0                       # What read queue length does an incoming req see
system.mem_ctrls2.rdQLenPdf::22                     0                       # What read queue length does an incoming req see
system.mem_ctrls2.rdQLenPdf::23                     0                       # What read queue length does an incoming req see
system.mem_ctrls2.rdQLenPdf::24                     0                       # What read queue length does an incoming req see
system.mem_ctrls2.rdQLenPdf::25                     0                       # What read queue length does an incoming req see
system.mem_ctrls2.rdQLenPdf::26                     0                       # What read queue length does an incoming req see
system.mem_ctrls2.rdQLenPdf::27                     0                       # What read queue length does an incoming req see
system.mem_ctrls2.rdQLenPdf::28                     0                       # What read queue length does an incoming req see
system.mem_ctrls2.rdQLenPdf::29                     0                       # What read queue length does an incoming req see
system.mem_ctrls2.rdQLenPdf::30                     0                       # What read queue length does an incoming req see
system.mem_ctrls2.rdQLenPdf::31                     0                       # What read queue length does an incoming req see
system.mem_ctrls2.wrQLenPdf::0                      1                       # What write queue length does an incoming req see
system.mem_ctrls2.wrQLenPdf::1                      1                       # What write queue length does an incoming req see
system.mem_ctrls2.wrQLenPdf::2                      1                       # What write queue length does an incoming req see
system.mem_ctrls2.wrQLenPdf::3                      1                       # What write queue length does an incoming req see
system.mem_ctrls2.wrQLenPdf::4                      1                       # What write queue length does an incoming req see
system.mem_ctrls2.wrQLenPdf::5                      1                       # What write queue length does an incoming req see
system.mem_ctrls2.wrQLenPdf::6                      1                       # What write queue length does an incoming req see
system.mem_ctrls2.wrQLenPdf::7                      1                       # What write queue length does an incoming req see
system.mem_ctrls2.wrQLenPdf::8                      1                       # What write queue length does an incoming req see
system.mem_ctrls2.wrQLenPdf::9                      1                       # What write queue length does an incoming req see
system.mem_ctrls2.wrQLenPdf::10                     1                       # What write queue length does an incoming req see
system.mem_ctrls2.wrQLenPdf::11                     1                       # What write queue length does an incoming req see
system.mem_ctrls2.wrQLenPdf::12                     1                       # What write queue length does an incoming req see
system.mem_ctrls2.wrQLenPdf::13                     1                       # What write queue length does an incoming req see
system.mem_ctrls2.wrQLenPdf::14                     1                       # What write queue length does an incoming req see
system.mem_ctrls2.wrQLenPdf::15                   268                       # What write queue length does an incoming req see
system.mem_ctrls2.wrQLenPdf::16                   329                       # What write queue length does an incoming req see
system.mem_ctrls2.wrQLenPdf::17                   734                       # What write queue length does an incoming req see
system.mem_ctrls2.wrQLenPdf::18                  1085                       # What write queue length does an incoming req see
system.mem_ctrls2.wrQLenPdf::19                  1191                       # What write queue length does an incoming req see
system.mem_ctrls2.wrQLenPdf::20                  1203                       # What write queue length does an incoming req see
system.mem_ctrls2.wrQLenPdf::21                  1185                       # What write queue length does an incoming req see
system.mem_ctrls2.wrQLenPdf::22                  1195                       # What write queue length does an incoming req see
system.mem_ctrls2.wrQLenPdf::23                  1184                       # What write queue length does an incoming req see
[...]
system.ruby.L2Cache_Controller.SS.L2_Replacement_clean |         651      6.07%      6.07% |         699      6.52%     12.59% |         740      6.90%     19.49% |         644      6.00%     25.49% |         669      6.24%     31.73% |         727      6.78%     38.50% |         703      6.55%     45.06% |         679      6.33%     51.39% |         729      6.80%     58.19% |         540      5.03%     63.22% |         622      5.80%     69.02% |         646      6.02%     75.04% |         640      5.97%     81.01% |         641      5.98%     86.98% |         738      6.88%     93.87% |         658      6.13%    100.00%
system.ruby.L2Cache_Controller.SS.L2_Replacement_clean::total        10726                      
system.ruby.L2Cache_Controller.M.L1_GET_INSTR |          14     25.00%     25.00% |           0      0.00%     25.00% |           0      0.00%     25.00% |           0      0.00%     25.00% |           0      0.00%     25.00% |           0      0.00%     25.00% |           0      0.00%     25.00% |           0      0.00%     25.00% |          14     25.00%     50.00% |          14     25.00%     75.00% |           0      0.00%     75.00% |           0      0.00%     75.00% |           0      0.00%     75.00% |           0      0.00%     75.00% |          14     25.00%    100.00% |           0      0.00%    100.00%
system.ruby.L2Cache_Controller.M.L1_GET_INSTR::total           56                      
system.ruby.L2Cache_Controller.M.L1_GETS |        9607      6.18%      6.18% |        9666      6.22%     12.40% |        9547      6.14%     18.55% |        9762      6.28%     24.83% |        9441      6.08%     30.91% |        9243      5.95%     36.86% |        9405      6.05%     42.91% |        9567      6.16%     49.07% |        9604      6.18%     55.25% |        9430      6.07%     61.32% |       10865      6.99%     68.31% |       10214      6.57%     74.89% |       10000      6.44%     81.32% |       10135      6.52%     87.85% |        9833      6.33%     94.18% |        9050      5.82%    100.00%
system.ruby.L2Cache_Controller.M.L1_GETS::total       155369                      
system.ruby.L2Cache_Controller.M.L1_GETX |        1283      6.15%      6.15% |        1346      6.45%     12.61% |        1344      6.44%     19.05% |        1276      6.12%     25.17% |        1294      6.21%     31.38% |        1212      5.81%     37.19% |        1189      5.70%     42.89% |        1336      6.41%     49.30% |        1246      5.97%     55.27% |        1291      6.19%     61.46% |        1867      8.95%     70.41% |        1214      5.82%     76.23% |        1234      5.92%     82.15% |        1164      5.58%     87.73% |        1270      6.09%     93.82% |        1288      6.18%    100.00%
system.ruby.L2Cache_Controller.M.L1_GETX::total        20854                      
system.ruby.L2Cache_Controller.M.L2_Replacement |        4761      6.31%      6.31% |        4737      6.28%     12.59% |        4684      6.21%     18.80% |        4741      6.28%     25.08% |        4600      6.10%     31.18% |        4700      6.23%     37.40% |        4625      6.13%     43.53% |        4696      6.22%     49.76% |        4765      6.32%     56.07% |        4590      6.08%     62.16% |        4748      6.29%     68.45% |        4689      6.21%     74.66% |        4737      6.28%     80.94% |        4780      6.33%     87.28% |        4874      6.46%     93.74% |        4727      6.26%    100.00%
system.ruby.L2Cache_Controller.M.L2_Replacement::total        75454                      
system.ruby.L2Cache_Controller.M.L2_Replacement_clean |        3220      6.28%      6.28% |        3111      6.07%     12.35% |        3043      5.94%     18.29% |        3177      6.20%     24.49% |        3119      6.09%     30.58% |        3216      6.28%     36.86% |        3208      6.26%     43.12% |        3257      6.36%     49.47% |        3288      6.42%     55.89% |        3165      6.18%     62.06% |        3161      6.17%     68.23% |        3187      6.22%     74.45% |        3306      6.45%     80.90% |        3320      6.48%     87.38% |        3237      6.32%     93.70% |        3229      6.30%    100.00%
system.ruby.L2Cache_Controller.M.L2_Replacement_clean::total        51244                      
system.ruby.L2Cache_Controller.MT.L1_GETS |          70      4.01%      4.01% |          70      4.01%      8.02% |          98      5.61%     13.63% |          98      5.61%     19.24% |          98      5.61%     24.86% |         140      8.02%     32.88% |         140      8.02%     40.89% |         140      8.02%     48.91% |         134      7.67%     56.59% |         134      7.67%     64.26% |         130      7.45%     71.71% |         130      7.45%     79.15% |         112      6.41%     85.57% |         112      6.41%     91.98% |          70      4.01%     95.99% |          70      4.01%    100.00%
system.ruby.L2Cache_Controller.MT.L1_GETS::total         1746                      
system.ruby.L2Cache_Controller.MT.L1_GETX |           0      0.00%      0.00% |           0      0.00%      0.00% |           0      0.00%      0.00% |           0      0.00%      0.00% |           0      0.00%      0.00% |           0      0.00%      0.00% |           0      0.00%      0.00% |           0      0.00%      0.00% |           3     18.75%     18.75% |           3     18.75%     37.50% |           5     31.25%     68.75% |           5     31.25%    100.00% |           0      0.00%    100.00% |           0      0.00%    100.00% |           0      0.00%    100.00% |           0      0.00%    100.00%
system.ruby.L2Cache_Controller.MT.L1_GETX::total           16                      
system.ruby.L2Cache_Controller.MT.L1_PUTX |       49440      6.24%      6.24% |       49420      6.24%     12.48% |       49084      6.19%     18.67% |       49560      6.25%     24.93% |       49003      6.18%     31.11% |       48931      6.18%     37.29% |       49092      6.20%     43.48% |       49488      6.25%     49.73% |       49525      6.25%     55.98% |       49064      6.19%     62.17% |       51244      6.47%     68.64% |       49944      6.30%     74.94% |       49960      6.31%     81.25% |       50022      6.31%     87.56% |       49682      6.27%     93.83% |       48902      6.17%    100.00%
system.ruby.L2Cache_Controller.MT.L1_PUTX::total       792361                      
system.ruby.L2Cache_Controller.MT.L2_Replacement |           5      6.76%      6.76% |           4      5.41%     12.16% |           7      9.46%     21.62% |           8     10.81%     32.43% |           7      9.46%     41.89% |           5      6.76%     48.65% |           3      4.05%     52.70% |           8     10.81%     63.51% |           4      5.41%     68.92% |           3      4.05%     72.97% |           6      8.11%     81.08% |           3      4.05%     85.14% |           5      6.76%     91.89% |           2      2.70%     94.59% |           3      4.05%     98.65% |           1      1.35%    100.00%
system.ruby.L2Cache_Controller.MT.L2_Replacement::total           74                      
system.ruby.L2Cache_Controller.MT.L2_Replacement_clean |          24      6.17%      6.17% |          23      5.91%     12.08% |          22      5.66%     17.74% |          19      4.88%     22.62% |          21      5.40%     28.02% |          23      5.91%     33.93% |          23      5.91%     39.85% |          22      5.66%     45.50% |          23      5.91%     51.41% |          26      6.68%     58.10% |          25      6.43%     64.52% |          23      5.91%     70.44% |          32      8.23%     78.66% |          30      7.71%     86.38% |          26      6.68%     93.06% |          27      6.94%    100.00%
system.ruby.L2Cache_Controller.MT.L2_Replacement_clean::total          389                      
system.ruby.L2Cache_Controller.M_I.Mem_Ack |        8665      6.28%      6.28% |        8577      6.22%     12.50% |        8497      6.16%     18.66% |        8592      6.23%     24.89% |        8420      6.10%     30.99% |        8677      6.29%     37.28% |        8566      6.21%     43.49% |        8667      6.28%     49.78% |        8814      6.39%     56.17% |        8328      6.04%     62.20% |        8566      6.21%     68.41% |        8552      6.20%     74.61% |        8724      6.32%     80.94% |        8774      6.36%     87.30% |        8879      6.44%     93.73% |        8643      6.27%    100.00%
system.ruby.L2Cache_Controller.M_I.Mem_Ack::total       137941                      
system.ruby.L2Cache_Controller.MT_I.WB_Data |           0      0.00%      0.00% |           2      8.00%      8.00% |           4     16.00%     24.00% |           1      4.00%     28.00% |           3     12.00%     40.00% |           1      4.00%     44.00% |           1      4.00%     48.00% |           3     12.00%     60.00% |           1      4.00%     64.00% |           2      8.00%     72.00% |           2      8.00%     80.00% |           2      8.00%     88.00% |           1      4.00%     92.00% |           0      0.00%     92.00% |           1      4.00%     96.00% |           1      4.00%    100.00%
system.ruby.L2Cache_Controller.MT_I.WB_Data::total           25                      
system.ruby.L2Cache_Controller.MT_I.Ack_all |           5     10.20%     10.20% |           2      4.08%     14.29% |           3      6.12%     20.41% |           7     14.29%     34.69% |           4      8.16%     42.86% |           4      8.16%     51.02% |           2      4.08%     55.10% |           5     10.20%     65.31% |           3      6.12%     71.43% |           1      2.04%     73.47% |           4      8.16%     81.63% |           1      2.04%     83.67% |           4      8.16%     91.84% |           2      4.08%     95.92% |           2      4.08%    100.00% |           0      0.00%    100.00%
system.ruby.L2Cache_Controller.MT_I.Ack_all::total           49                      
system.ruby.L2Cache_Controller.MCT_I.WB_Data |          24      6.63%      6.63% |          22      6.08%     12.71% |          22      6.08%     18.78% |          17      4.70%     23.48% |          17      4.70%     28.18% |          20      5.52%     33.70% |          22      6.08%     39.78% |          20      5.52%     45.30% |          21      5.80%     51.10% |          25      6.91%     58.01% |          23      6.35%     64.36% |          23      6.35%     70.72% |          30      8.29%     79.01% |          27      7.46%     86.46% |          24      6.63%     93.09% |          25      6.91%    100.00%
system.ruby.L2Cache_Controller.MCT_I.WB_Data::total          362                      
system.ruby.L2Cache_Controller.MCT_I.Ack_all |           0      0.00%      0.00% |           1      3.70%      3.70% |           0      0.00%      3.70% |           2      7.41%     11.11% |           4     14.81%     25.93% |           3     11.11%     37.04% |           1      3.70%     40.74% |           2      7.41%     48.15% |           2      7.41%     55.56% |           1      3.70%     59.26% |           2      7.41%     66.67% |           0      0.00%     66.67% |           2      7.41%     74.07% |           3     11.11%     85.19% |           2      7.41%     92.59% |           2      7.41%    100.00%
system.ruby.L2Cache_Controller.MCT_I.Ack_all::total           27                      
system.ruby.L2Cache_Controller.I_I.Ack_all |         651      6.07%      6.07% |         699      6.52%     12.59% |         740      6.90%     19.49% |         644      6.00%     25.49% |         669      6.24%     31.73% |         727      6.78%     38.50% |         703      6.55%     45.06% |         679      6.33%     51.39% |         729      6.80%     58.19% |         540      5.03%     63.22% |         622      5.80%     69.02% |         646      6.02%     75.04% |         640      5.97%     81.01% |         641      5.98%     86.98% |         738      6.88%     93.87% |         658      6.13%    100.00%
system.ruby.L2Cache_Controller.I_I.Ack_all::total        10726                      
system.ruby.L2Cache_Controller.S_I.Ack   |           4      7.41%      7.41% |           3      5.56%     12.96% |           1      1.85%     14.81% |           3      5.56%     20.37% |           4      7.41%     27.78% |           6     11.11%     38.89% |           4      7.41%     46.30% |           5      9.26%     55.56% |           5      9.26%     64.81% |           4      7.41%     72.22% |           4      7.41%     79.63% |           4      7.41%     87.04% |           4      7.41%     94.44% |           1      1.85%     96.30% |           1      1.85%     98.15% |           1      1.85%    100.00%
system.ruby.L2Cache_Controller.S_I.Ack::total           54                      
system.ruby.L2Cache_Controller.S_I.Ack_all |           4      7.41%      7.41% |           3      5.56%     12.96% |           1      1.85%     14.81% |           3      5.56%     20.37% |           4      7.41%     27.78% |           6     11.11%     38.89% |           4      7.41%     46.30% |           5      9.26%     55.56% |           5      9.26%     64.81% |           4      7.41%     72.22% |           4      7.41%     79.63% |           4      7.41%     87.04% |           4      7.41%     94.44% |           1      1.85%     96.30% |           1      1.85%     98.15% |           1      1.85%    100.00%
system.ruby.L2Cache_Controller.S_I.Ack_all::total           54                      
system.ruby.L2Cache_Controller.ISS.Mem_Data |       29329      6.27%      6.27% |       29094      6.22%     12.48% |       28843      6.16%     18.64% |       29244      6.25%     24.89% |       28977      6.19%     31.08% |       29203      6.24%     37.32% |       29237      6.25%     43.57% |       29311      6.26%     49.83% |       29440      6.29%     56.12% |       29152      6.23%     62.35% |       29281      6.26%     68.61% |       29311      6.26%     74.87% |       29518      6.31%     81.18% |       29479      6.30%     87.47% |       29325      6.27%     93.74% |       29304      6.26%    100.00%
system.ruby.L2Cache_Controller.ISS.Mem_Data::total       468048                      
system.ruby.L2Cache_Controller.IS.Mem_Data |        1360      6.37%      6.37% |        1373      6.43%     12.81% |        1506      7.06%     19.87% |        1306      6.12%     25.99% |        1358      6.36%     32.35% |        1347      6.31%     38.67% |        1291      6.05%     44.72% |        1303      6.11%     50.82% |        1376      6.45%     57.27% |        1164      5.46%     62.73% |        1253      5.87%     68.60% |        1272      5.96%     74.56% |        1241      5.82%     80.38% |        1308      6.13%     86.51% |        1529      7.17%     93.67% |        1350      6.33%    100.00%
system.ruby.L2Cache_Controller.IS.Mem_Data::total        21337                      
system.ruby.L2Cache_Controller.IM.Mem_Data |       10145      6.22%      6.22% |       10238      6.28%     12.50% |       10273      6.30%     18.80% |       10216      6.26%     25.06% |       10227      6.27%     31.33% |       10225      6.27%     37.60% |       10213      6.26%     43.86% |       10223      6.27%     50.13% |       10175      6.24%     56.37% |       10140      6.22%     62.59% |       10183      6.24%     68.83% |       10157      6.23%     75.06% |       10144      6.22%     81.28% |       10180      6.24%     87.52% |       10178      6.24%     93.76% |       10181      6.24%    100.00%
system.ruby.L2Cache_Controller.IM.Mem_Data::total       163098                      
system.ruby.L2Cache_Controller.SS_MB.Exclusive_Unblock |          42      3.95%      3.95% |          42      3.95%      7.91% |          70      6.59%     14.50% |          56      5.27%     19.77% |          56      5.27%     25.05% |          84      7.91%     32.96% |          84      7.91%     40.87% |          84      7.91%     48.78% |          81      7.63%     56.40% |          81      7.63%     64.03% |          79      7.44%     71.47% |          79      7.44%     78.91% |          70      6.59%     85.50% |          70      6.59%     92.09% |          42      3.95%     96.05% |          42      3.95%    100.00%
system.ruby.L2Cache_Controller.SS_MB.Exclusive_Unblock::total         1062                      
system.ruby.L2Cache_Controller.MT_MB.Exclusive_Unblock |       50364      6.24%      6.24% |       50344      6.24%     12.47% |       50007      6.19%     18.67% |       50498      6.25%     24.92% |       49939      6.19%     31.11% |       49883      6.18%     37.29% |       50044      6.20%     43.48% |       50437      6.25%     49.73% |       50468      6.25%     55.98% |       50016      6.19%     62.18% |       52201      6.47%     68.64% |       50901      6.30%     74.95% |       50896      6.30%     81.25% |       50958      6.31%     87.56% |       50606      6.27%     93.83% |       49823      6.17%    100.00%
system.ruby.L2Cache_Controller.MT_MB.Exclusive_Unblock::total       807385                      
system.ruby.L2Cache_Controller.MT_IIB.WB_Data |          70      4.05%      4.05% |          69      4.00%      8.05% |          98      5.67%     13.72% |          94      5.44%     19.17% |          96      5.56%     24.72% |         140      8.11%     32.83% |         139      8.05%     40.88% |         140      8.11%     48.99% |         133      7.70%     56.69% |         133      7.70%     64.39% |         130      7.53%     71.92% |         129      7.47%     79.39% |         111      6.43%     85.81% |         109      6.31%     92.13% |          69      4.00%     96.12% |          67      3.88%    100.00%
system.ruby.L2Cache_Controller.MT_IIB.WB_Data::total         1727                      
system.ruby.L2Cache_Controller.MT_IIB.Unblock |           0      0.00%      0.00% |           1      5.26%      5.26% |           0      0.00%      5.26% |           4     21.05%     26.32% |           2     10.53%     36.84% |           0      0.00%     36.84% |           1      5.26%     42.11% |           0      0.00%     42.11% |           1      5.26%     47.37% |           1      5.26%     52.63% |           0      0.00%     52.63% |           1      5.26%     57.89% |           1      5.26%     63.16% |           3     15.79%     78.95% |           1      5.26%     84.21% |           3     15.79%    100.00%
system.ruby.L2Cache_Controller.MT_IIB.Unblock::total           19                      
system.ruby.L2Cache_Controller.MT_IB.WB_Data |           0      0.00%      0.00% |           1      5.26%      5.26% |           0      0.00%      5.26% |           4     21.05%     26.32% |           2     10.53%     36.84% |           0      0.00%     36.84% |           1      5.26%     42.11% |           0      0.00%     42.11% |           1      5.26%     47.37% |           1      5.26%     52.63% |           0      0.00%     52.63% |           1      5.26%     57.89% |           1      5.26%     63.16% |           3     15.79%     78.95% |           1      5.26%     84.21% |           3     15.79%    100.00%
system.ruby.L2Cache_Controller.MT_IB.WB_Data::total           19                      
system.ruby.L2Cache_Controller.MT_SB.Unblock |          70      4.05%      4.05% |          69      4.00%      8.05% |          98      5.67%     13.72% |          94      5.44%     19.17% |          96      5.56%     24.72% |         140      8.11%     32.83% |         139      8.05%     40.88% |         140      8.11%     48.99% |         133      7.70%     56.69% |         133      7.70%     64.39% |         130      7.53%     71.92% |         129      7.47%     79.39% |         111      6.43%     85.81% |         109      6.31%     92.13% |          69      4.00%     96.12% |          67      3.88%    100.00%
system.ruby.L2Cache_Controller.MT_SB.Unblock::total         1727                      

---------- End Simulation Statistics   ----------
