
---------- Begin Simulation Statistics ----------
sim_seconds                                  0.013368                       # Number of seconds simulated
sim_ticks                                 13368292000                       # Number of ticks simulated
final_tick                                13368292000                       # Number of ticks from beginning of simulation (restored from checkpoints and never reset)
sim_freq                                 1000000000000                       # Frequency of simulated ticks
host_inst_rate                                  34810                       # Simulator instruction rate (inst/s)
host_op_rate                                    60778                       # Simulator op (including micro ops) rate (op/s)
host_tick_rate                               10955640                       # Simulator tick rate (ticks/s)
host_mem_usage                                1758692                       # Number of bytes of host memory used
host_seconds                                  1220.22                       # Real time elapsed on the host
sim_insts                                    42475549                       # Number of instructions simulated
sim_ops                                      74162453                       # Number of ops (including micro ops) simulated
system.voltage_domain.voltage                       1                       # Voltage in Volts
system.clk_domain.clock                          1000                       # Clock period in ticks
system.mem_ctrls0.pwrStateResidencyTicks::UNDEFINED  13368292000                       # Cumulative time (in ticks) in various power states
system.mem_ctrls0.bytes_read::ruby.dir_cntrl0      8701632                       # Number of bytes read from this memory
system.mem_ctrls0.bytes_read::total           8701632                       # Number of bytes read from this memory
system.mem_ctrls0.bytes_written::ruby.dir_cntrl0      1355392                       # Number of bytes written to this memory
system.mem_ctrls0.bytes_written::total        1355392                       # Number of bytes written to this memory
system.mem_ctrls0.num_reads::ruby.dir_cntrl0       135963                       # Number of read requests responded to by this memory
system.mem_ctrls0.num_reads::total             135963                       # Number of read requests responded to by this memory
system.mem_ctrls0.num_writes::ruby.dir_cntrl0        21178                       # Number of write requests responded to by this memory
system.mem_ctrls0.num_writes::total             21178                       # Number of write requests responded to by this memory
system.mem_ctrls0.bw_read::ruby.dir_cntrl0    650915764                       # Total read bandwidth from this memory (bytes/s)
system.mem_ctrls0.bw_read::total            650915764                       # Total read bandwidth from this memory (bytes/s)
system.mem_ctrls0.bw_write::ruby.dir_cntrl0    101388569                       # Write bandwidth from this memory (bytes/s)
system.mem_ctrls0.bw_write::total           101388569                       # Write bandwidth from this memory (bytes/s)
system.mem_ctrls0.bw_total::ruby.dir_cntrl0    752304333                       # Total bandwidth to/from this memory (bytes/s)
system.mem_ctrls0.bw_total::total           752304333                       # Total bandwidth to/from this memory (bytes/s)
system.mem_ctrls0.readReqs                     135963                       # Number of read requests accepted
system.mem_ctrls0.avgNetLat                      0.00                       # Average network latency to DRAM controller
system.mem_ctrls0.writeReqs                     21178                       # Number of write requests accepted
system.mem_ctrls0.readBursts                   135963                       # Number of DRAM read bursts, including those serviced by the write queue
system.mem_ctrls0.writeBursts                   21178                       # Number of DRAM write bursts, including those merged in the write queue
system.mem_ctrls0.bytesReadDRAM               8700800                       # Total number of bytes read from DRAM
system.mem_ctrls0.bytesReadWrQ                    832                       # Total number of bytes read from write queue
system.mem_ctrls0.bytesWritten                1353984                       # Total number of bytes written to DRAM
system.mem_ctrls0.bytesReadSys                8701632                       # Total read bytes from the system interface side
system.mem_ctrls0.bytesWrittenSys             1355392                       # Total written bytes from the system interface side
system.mem_ctrls0.servicedByWrQ                    13                       # Number of DRAM read bursts serviced by the write queue
system.mem_ctrls0.mergedWrBursts                    0                       # Number of DRAM write bursts merged with an existing one
system.mem_ctrls0.neitherReadNorWriteReqs            0                       # Number of requests that are neither read nor write
system.mem_ctrls0.perBankRdBursts::0             8518                       # Per bank write bursts
system.mem_ctrls0.perBankRdBursts::1             8327                       # Per bank write bursts
system.mem_ctrls0.perBankRdBursts::2             8184                       # Per bank write bursts
system.mem_ctrls0.perBankRdBursts::3             8310                       # Per bank write bursts
system.mem_ctrls0.perBankRdBursts::4             8141                       # Per bank write bursts
system.mem_ctrls0.perBankRdBursts::5             8061                       # Per bank write bursts
system.mem_ctrls0.perBankRdBursts::6             8350                       # Per bank write bursts
system.mem_ctrls0.perBankRdBursts::7             8121                       # Per bank write bursts
system.mem_ctrls0.perBankRdBursts::8             8220                       # Per bank write bursts
system.mem_ctrls0.perBankRdBursts::9             8379                       # Per bank write bursts
system.mem_ctrls0.perBankRdBursts::10            8787                       # Per bank write bursts
system.mem_ctrls0.perBankRdBursts::11            8663                       # Per bank write bursts
system.mem_ctrls0.perBankRdBursts::12            9301                       # Per bank write bursts
system.mem_ctrls0.perBankRdBursts::13            9369                       # Per bank write bursts
system.mem_ctrls0.perBankRdBursts::14            8666                       # Per bank write bursts
system.mem_ctrls0.perBankRdBursts::15            8553                       # Per bank write bursts
system.mem_ctrls0.perBankWrBursts::0             1182                       # Per bank write bursts
system.mem_ctrls0.perBankWrBursts::1             1219                       # Per bank write bursts
system.mem_ctrls0.perBankWrBursts::2             1277                       # Per bank write bursts
system.mem_ctrls0.perBankWrBursts::3             1359                       # Per bank write bursts
system.mem_ctrls0.perBankWrBursts::4             1473                       # Per bank write bursts
system.mem_ctrls0.perBankWrBursts::5             1391                       # Per bank write bursts
system.mem_ctrls0.perBankWrBursts::6             1398                       # Per bank write bursts
system.mem_ctrls0.perBankWrBursts::7             1359                       # Per bank write bursts
system.mem_ctrls0.perBankWrBursts::8             1242                       # Per bank write bursts
system.mem_ctrls0.perBankWrBursts::9             1233                       # Per bank write bursts
system.mem_ctrls0.perBankWrBursts::10            1175                       # Per bank write bursts
system.mem_ctrls0.perBankWrBursts::11            1392                       # Per bank write bursts
system.mem_ctrls0.perBankWrBursts::12            1403                       # Per bank write bursts
system.mem_ctrls0.perBankWrBursts::13            1367                       # Per bank write bursts
system.mem_ctrls0.perBankWrBursts::14            1359                       # Per bank write bursts
system.mem_ctrls0.perBankWrBursts::15            1327                       # Per bank write bursts
system.mem_ctrls0.numRdRetry                        0                       # Number of times read queue was full causing retry
system.mem_ctrls0.numWrRetry                        0                       # Number of times write queue was full causing retry
system.mem_ctrls0.totGap                  13367346000                       # Total gap between requests
system.mem_ctrls0.readPktSize::0                    0                       # Read request sizes (log2)
system.mem_ctrls0.readPktSize::1                    0                       # Read request sizes (log2)
system.mem_ctrls0.readPktSize::2                    0                       # Read request sizes (log2)
system.mem_ctrls0.readPktSize::3                    0                       # Read request sizes (log2)
system.mem_ctrls0.readPktSize::4                    0                       # Read request sizes (log2)
system.mem_ctrls0.readPktSize::5                    0                       # Read request sizes (log2)
system.mem_ctrls0.readPktSize::6               135963                       # Read request sizes (log2)
system.mem_ctrls0.writePktSize::0                   0                       # Write request sizes (log2)
system.mem_ctrls0.writePktSize::1                   0                       # Write request sizes (log2)
system.mem_ctrls0.writePktSize::2                   0                       # Write request sizes (log2)
system.mem_ctrls0.writePktSize::3                   0                       # Write request sizes (log2)
system.mem_ctrls0.writePktSize::4                   0                       # Write request sizes (log2)
system.mem_ctrls0.writePktSize::5                   0                       # Write request sizes (log2)
system.mem_ctrls0.writePktSize::6               21178                       # Write request sizes (log2)
system.mem_ctrls0.rdQLenPdf::0                  66727                       # What read queue length does an incoming req see
system.mem_ctrls0.rdQLenPdf::1                  34486                       # What read queue length does an incoming req see
system.mem_ctrls0.rdQLenPdf::2                  17680                       # What read queue length does an incoming req see
system.mem_ctrls0.rdQLenPdf::3                   9050                       # What read queue length does an incoming req see
system.mem_ctrls0.rdQLenPdf::4                   4538                       # What read queue length does an incoming req see
system.mem_ctrls0.rdQLenPdf::5                   2057                       # What read queue length does an incoming req see
system.mem_ctrls0.rdQLenPdf::6                    903                       # What read queue length does an incoming req see
system.mem_ctrls0.rdQLenPdf::7                    357                       # What read queue length does an incoming req see
system.mem_ctrls0.rdQLenPdf::8                    115                       # What read queue length does an incoming req see
system.mem_ctrls0.rdQLenPdf::9                     30                       # What read queue length does an incoming req see
system.mem_ctrls0.rdQLenPdf::10                     5                       # What read queue length does an incoming req see
system.mem_ctrls0.rdQLenPdf::11                     1                       # What read queue length does an incoming req see
system.mem_ctrls0.rdQLenPdf::12                     1                       # What read queue length does an incoming req see
system.mem_ctrls0.rdQLenPdf::13                     0                       # What read queue length does an incoming req see
system.mem_ctrls0.rdQLenPdf::14                     0                       # What read queue length does an incoming req see
system.mem_ctrls0.rdQLenPdf::15                     0                       # What read queue length does an incoming req see
system.mem_ctrls0.rdQLenPdf::16                     0                       # What read queue length does an incoming req see
system.mem_ctrls0.rdQLenPdf::17                     0                       # What read queue length does an incoming req see
system.mem_ctrls0.rdQLenPdf::18                     0                       # What read queue length does an incoming req see
system.mem_ctrls0.rdQLenPdf::19                     0                       # What read queue length does an incoming req see
system.mem_ctrls0.rdQLenPdf::20                     0                       # What read queue length does an incoming req see
system.mem_ctrls0.rdQLenPdf::21                     0                       # What read queue length does an incoming req see
system.mem_ctrls0.rdQLenPdf::22                     0                       # What read queue length does an incoming req see
system.mem_ctrls0.rdQLenPdf::23                     0                       # What read queue length does an incoming req see
system.mem_ctrls0.rdQLenPdf::24                     0                       # What read queue length does an incoming req see
system.mem_ctrls0.rdQLenPdf::25                     0                       # What read queue length does an incoming req see
system.mem_ctrls0.rdQLenPdf::26                     0                       # What read queue length does an incoming req see
system.mem_ctrls0.rdQLenPdf::27                     0                       # What read queue length does an incoming req see
system.mem_ctrls0.rdQLenPdf::28                     0                       # What read queue length does an incoming req see
system.mem_ctrls0.rdQLenPdf::29                     0                       # What read queue length does an incoming req see
system.mem_ctrls0.rdQLenPdf::30                     0                       # What read queue length does an incoming req see
system.mem_ctrls0.rdQLenPdf::31                     0                       # What read queue length does an incoming req see
system.mem_ctrls0.wrQLenPdf::0                      1                       # What write queue length does an incoming req see
system.mem_ctrls0.wrQLenPdf::1                      1                       # What write queue length does an incoming req see
system.mem_ctrls0.wrQLenPdf::2                      1                       # What write queue length does an incoming req see
system.mem_ctrls0.wrQLenPdf::3                      1                       # What write queue length does an incoming req see
system.mem_ctrls0.wrQLenPdf::4                      1                       # What write queue length does an incoming req see
system.mem_ctrls0.wrQLenPdf::5                      1                       # What write queue length does an incoming req see
system.mem_ctrls0.wrQLenPdf::6                      1                       # What write queue length does an incoming req see
system.mem_ctrls0.wrQLenPdf::7                      1                       # What write queue length does an incoming req see
system.mem_ctrls0.wrQLenPdf::8                      1                       # What write queue length does an incoming req see
system.mem_ctrls0.wrQLenPdf::9                      1                       # What write queue length does an incoming req see
system.mem_ctrls0.wrQLenPdf::10                     1                       # What write queue length does an incoming req see
system.mem_ctrls0.wrQLenPdf::11                     1                       # What write queue length does an incoming req see
system.mem_ctrls0.wrQLenPdf::12                     1                       # What write queue length does an incoming req see
system.mem_ctrls0.wrQLenPdf::13                     1                       # What write queue length does an incoming req see
system.mem_ctrls0.wrQLenPdf::14                     1                       # What write queue length does an incoming req see
system.mem_ctrls0.wrQLenPdf::15                   493                       # What write queue length does an incoming req see
system.mem_ctrls0.wrQLenPdf::16                   558                       # What write queue length does an incoming req see
system.mem_ctrls0.wrQLenPdf::17                   934                       # What write queue length does an incoming req see
system.mem_ctrls0.wrQLenPdf::18                  1214                       # What write queue length does an incoming req see
system.mem_ctrls0.wrQLenPdf::19                  1268                       # What write queue length does an incoming req see
system.mem_ctrls0.wrQLenPdf::20                  1293                       # What write queue length does an incoming req see
system.mem_ctrls0.wrQLenPdf::21                  1292                       # What write queue length does an incoming req see
system.mem_ctrls0.wrQLenPdf::22                  1280                       # What write queue length does an incoming req see
system.mem_ctrls0.wrQLenPdf::23                  1275                       # What write queue length does an incoming req see
system.mem_ctrls0.wrQLenPdf::24                  1289                       # What write queue length does an incoming req see
system.mem_ctrls0.wrQLenPdf::25                  1282                       # What write queue length does an incoming req see
system.mem_ctrls0.wrQLenPdf::26                  1291                       # What write queue length does an incoming req see
system.mem_ctrls0.wrQLenPdf::27                  1296                       # What write queue length does an incoming req see
system.mem_ctrls0.wrQLenPdf::28                  1296                       # What write queue length does an incoming req see
system.mem_ctrls0.wrQLenPdf::29                  1308                       # What write queue length does an incoming req see
system.mem_ctrls0.wrQLenPdf::30                  1273                       # What write queue length does an incoming req see
system.mem_ctrls0.wrQLenPdf::31                  1252                       # What write queue length does an incoming req see
system.mem_ctrls0.wrQLenPdf::32                  1252                       # What write queue length does an incoming req see
system.mem_ctrls0.wrQLenPdf::33                    14                       # What write queue length does an incoming req see
system.mem_ctrls0.wrQLenPdf::34                     3                       # What write queue length does an incoming req see
system.mem_ctrls0.wrQLenPdf::35                     0                       # What write queue length does an incoming req see
system.mem_ctrls0.wrQLenPdf::36                     0                       # What write queue length does an incoming req see
system.mem_ctrls0.wrQLenPdf::37                     0                       # What write queue length does an incoming req see
system.mem_ctrls0.wrQLenPdf::38                     0                       # What write queue length does an incoming req see
system.mem_ctrls0.wrQLenPdf::39                     0                       # What write queue length does an incoming req see
system.mem_ctrls0.wrQLenPdf::40                     0                       # What write queue length does an incoming req see
system.mem_ctrls0.wrQLenPdf::41                     0                       # What write queue length does an incoming req see
system.mem_ctrls0.wrQLenPdf::42                     0                       # What write queue length does an incoming req see
system.mem_ctrls0.wrQLenPdf::43                     0                       # What write queue length does an incoming req see
system.mem_ctrls0.wrQLenPdf::44                     0                       # What write queue length does an incoming req see
system.mem_ctrls0.wrQLenPdf::45                     0                       # What write queue length does an incoming req see
system.mem_ctrls0.wrQLenPdf::46                     0                       # What write queue length does an incoming req see
system.mem_ctrls0.wrQLenPdf::47                     0                       # What write queue length does an incoming req see
system.mem_ctrls0.wrQLenPdf::48                     0                       # What write queue length does an incoming req see
system.mem_ctrls0.wrQLenPdf::49                     0                       # What write queue length does an incoming req see
system.mem_ctrls0.wrQLenPdf::50                     0                       # What write queue length does an incoming req see
system.mem_ctrls0.wrQLenPdf::51                     0                       # What write queue length does an incoming req see
system.mem_ctrls0.wrQLenPdf::52                     0                       # What write queue length does an incoming req see
system.mem_ctrls0.wrQLenPdf::53                     0                       # What write queue length does an incoming req see
system.mem_ctrls0.wrQLenPdf::54                     0                       # What write queue length does an incoming req see
system.mem_ctrls0.wrQLenPdf::55                     0                       # What write queue length does an incoming req see
system.mem_ctrls0.wrQLenPdf::56                     0                       # What write queue length does an incoming req see
system.mem_ctrls0.wrQLenPdf::57                     0                       # What write queue length does an incoming req see
system.mem_ctrls0.wrQLenPdf::58                     0                       # What write queue length does an incoming req see
system.mem_ctrls0.wrQLenPdf::59                     0                       # What write queue length does an incoming req see
system.mem_ctrls0.wrQLenPdf::60                     0                       # What write queue length does an incoming req see
system.mem_ctrls0.wrQLenPdf::61                     0                       # What write queue length does an incoming req see
system.mem_ctrls0.wrQLenPdf::62                     0                       # What write queue length does an incoming req see
system.mem_ctrls0.wrQLenPdf::63                     0                       # What write queue length does an incoming req see
system.mem_ctrls0.bytesPerActivate::samples        80812                       # Bytes accessed per row activation
system.mem_ctrls0.bytesPerActivate::mean   124.416374                       # Bytes accessed per row activation
system.mem_ctrls0.bytesPerActivate::gmean    92.844750                       # Bytes accessed per row activation
system.mem_ctrls0.bytesPerActivate::stdev   139.929087                       # Bytes accessed per row activation
system.mem_ctrls0.bytesPerActivate::0-127        55200     68.31%     68.31% # Bytes accessed per row activation
system.mem_ctrls0.bytesPerActivate::128-255        16202     20.05%     88.36% # Bytes accessed per row activation
system.mem_ctrls0.bytesPerActivate::256-383         3575      4.42%     92.78% # Bytes accessed per row activation
system.mem_ctrls0.bytesPerActivate::384-511         2191      2.71%     95.49% # Bytes accessed per row activation
system.mem_ctrls0.bytesPerActivate::512-639         1416      1.75%     97.24% # Bytes accessed per row activation
system.mem_ctrls0.bytesPerActivate::640-767         1659      2.05%     99.30% # Bytes accessed per row activation
system.mem_ctrls0.bytesPerActivate::768-895          106      0.13%     99.43% # Bytes accessed per row activation
system.mem_ctrls0.bytesPerActivate::896-1023           86      0.11%     99.53% # Bytes accessed per row activation
system.mem_ctrls0.bytesPerActivate::1024-1151          377      0.47%    100.00% # Bytes accessed per row activation
system.mem_ctrls0.bytesPerActivate::total        80812                       # Bytes accessed per row activation
system.mem_ctrls0.rdPerTurnAround::samples         1249                       # Reads before turning the bus around for writes
system.mem_ctrls0.rdPerTurnAround::mean    108.839872                       # Reads before turning the bus around for writes
system.mem_ctrls0.rdPerTurnAround::gmean    31.608958                       # Reads before turning the bus around for writes
system.mem_ctrls0.rdPerTurnAround::stdev  2018.922376                       # Reads before turning the bus around for writes
system.mem_ctrls0.rdPerTurnAround::0-4095         1248     99.92%     99.92% # Reads before turning the bus around for writes
system.mem_ctrls0.rdPerTurnAround::69632-73727            1      0.08%    100.00% # Reads before turning the bus around for writes
system.mem_ctrls0.rdPerTurnAround::total         1249                       # Reads before turning the bus around for writes
system.mem_ctrls0.wrPerTurnAround::samples         1249                       # Writes before turning the bus around for reads
system.mem_ctrls0.wrPerTurnAround::mean     16.938351                       # Writes before turning the bus around for reads
system.mem_ctrls0.wrPerTurnAround::gmean    16.904090                       # Writes before turning the bus around for reads
system.mem_ctrls0.wrPerTurnAround::stdev     1.089082                       # Writes before turning the bus around for reads
system.mem_ctrls0.wrPerTurnAround::16             678     54.28%     54.28% # Writes before turning the bus around for reads
system.mem_ctrls0.wrPerTurnAround::17              63      5.04%     59.33% # Writes before turning the bus around for reads
system.mem_ctrls0.wrPerTurnAround::18             425     34.03%     93.35% # Writes before turning the bus around for reads
system.mem_ctrls0.wrPerTurnAround::19              73      5.84%     99.20% # Writes before turning the bus around for reads
system.mem_ctrls0.wrPerTurnAround::20              10      0.80%    100.00% # Writes before turning the bus around for reads
system.mem_ctrls0.wrPerTurnAround::total         1249                       # Writes before turning the bus around for reads
system.mem_ctrls0.totQLat                  3607841500                       # Total ticks spent queuing
system.mem_ctrls0.totMemAccLat             6156904000                       # Total ticks spent from burst creation until serviced by the DRAM
system.mem_ctrls0.totBusLat                 679750000                       # Total ticks spent in databus transfers
system.mem_ctrls0.avgQLat                    26538.00                       # Average queueing delay per DRAM burst
system.mem_ctrls0.avgBusLat                   5000.00                       # Average bus latency per DRAM burst
system.mem_ctrls0.avgMemAccLat               45288.00                       # Average memory access latency per DRAM burst
system.mem_ctrls0.avgRdBW                      650.85                       # Average DRAM read bandwidth in MiByte/s
system.mem_ctrls0.avgWrBW                      101.28                       # Average achieved write bandwidth in MiByte/s
system.mem_ctrls0.avgRdBWSys                   650.92                       # Average system read bandwidth in MiByte/s
system.mem_ctrls0.avgWrBWSys                   101.39                       # Average system write bandwidth in MiByte/s
system.mem_ctrls0.peakBW                     12800.00                       # Theoretical peak bandwidth in MiByte/s
system.mem_ctrls0.busUtil                        5.88                       # Data bus utilization in percentage
system.mem_ctrls0.busUtilRead                    5.08                       # Data bus utilization in percentage for reads
system.mem_ctrls0.busUtilWrite                   0.79                       # Data bus utilization in percentage for writes
system.mem_ctrls0.avgRdQLen                      1.57                       # Average read queue length when enqueuing
system.mem_ctrls0.avgWrQLen                     10.31                       # Average write queue length when enqueuing
system.mem_ctrls0.readRowHits                   69786                       # Number of row buffer hits during reads
system.mem_ctrls0.writeRowHits                   6503                       # Number of row buffer hits during writes
system.mem_ctrls0.readRowHitRate                51.33                       # Row buffer hit rate for reads
system.mem_ctrls0.writeRowHitRate               30.71                       # Row buffer hit rate for writes
system.mem_ctrls0.avgGap                     85065.93                       # Average gap between requests
system.mem_ctrls0.pageHitRate                   48.55                       # Row buffer hit rate, read and write combined
system.mem_ctrls0_0.actEnergy               274561560                       # Energy for activate commands per rank (pJ)
system.mem_ctrls0_0.preEnergy               145917750                       # Energy for precharge commands per rank (pJ)
system.mem_ctrls0_0.readEnergy              471325680                       # Energy for read commands per rank (pJ)
system.mem_ctrls0_0.writeEnergy              55634760                       # Energy for write commands per rank (pJ)
system.mem_ctrls0_0.refreshEnergy        1060868640.000000                       # Energy for refresh commands per rank (pJ)
system.mem_ctrls0_0.actBackEnergy          1311447450                       # Energy for active background per rank (pJ)
system.mem_ctrls0_0.preBackEnergy            25283520                       # Energy for precharge background per rank (pJ)
system.mem_ctrls0_0.actPowerDownEnergy     4355766150                       # Energy for active power-down per rank (pJ)
system.mem_ctrls0_0.prePowerDownEnergy      314675520                       # Energy for precharge power-down per rank (pJ)
system.mem_ctrls0_0.selfRefreshEnergy        23112120                       # Energy for self refresh per rank (pJ)
system.mem_ctrls0_0.totalEnergy            8038597470                       # Total energy per rank (pJ)
system.mem_ctrls0_0.averagePower           601.318192                       # Core power per rank (mW)
system.mem_ctrls0_0.totalIdleTime         10425391500                       # Total Idle time Per DRAM Rank
system.mem_ctrls0_0.memoryStateTime::IDLE     14467000                       # Time in different power states
system.mem_ctrls0_0.memoryStateTime::REF    448868000                       # Time in different power states
system.mem_ctrls0_0.memoryStateTime::SREF     54874500                       # Time in different power states
system.mem_ctrls0_0.memoryStateTime::PRE_PDN    819223500                       # Time in different power states
system.mem_ctrls0_0.memoryStateTime::ACT   2478101000                       # Time in different power states
system.mem_ctrls0_0.memoryStateTime::ACT_PDN   9552758000                       # Time in different power states
system.mem_ctrls0_1.actEnergy               302471820                       # Energy for activate commands per rank (pJ)
system.mem_ctrls0_1.preEnergy               160763790                       # Energy for precharge commands per rank (pJ)
system.mem_ctrls0_1.readEnergy              499357320                       # Energy for read commands per rank (pJ)
system.mem_ctrls0_1.writeEnergy              54799560                       # Energy for write commands per rank (pJ)
system.mem_ctrls0_1.refreshEnergy        1059639360.000000                       # Energy for refresh commands per rank (pJ)
system.mem_ctrls0_1.actBackEnergy          1391119770                       # Energy for active background per rank (pJ)
system.mem_ctrls0_1.preBackEnergy            25428000                       # Energy for precharge background per rank (pJ)
system.mem_ctrls0_1.actPowerDownEnergy     4309171500                       # Energy for active power-down per rank (pJ)
system.mem_ctrls0_1.prePowerDownEnergy      273799200                       # Energy for precharge power-down per rank (pJ)
system.mem_ctrls0_1.selfRefreshEnergy        32323110                       # Energy for self refresh per rank (pJ)
system.mem_ctrls0_1.totalEnergy            8109007320                       # Total energy per rank (pJ)
system.mem_ctrls0_1.averagePower           606.585121                       # Core power per rank (mW)
system.mem_ctrls0_1.totalIdleTime         10250646000                       # Total Idle time Per DRAM Rank
system.mem_ctrls0_1.memoryStateTime::IDLE     14998750                       # Time in different power states
system.mem_ctrls0_1.memoryStateTime::REF    448360000                       # Time in different power states
system.mem_ctrls0_1.memoryStateTime::SREF     88113000                       # Time in different power states
system.mem_ctrls0_1.memoryStateTime::PRE_PDN    712824250                       # Time in different power states
system.mem_ctrls0_1.memoryStateTime::ACT   2653427000                       # Time in different power states
system.mem_ctrls0_1.memoryStateTime::ACT_PDN   9450569000                       # Time in different power states
system.mem_ctrls1.pwrStateResidencyTicks::UNDEFINED  13368292000                       # Cumulative time (in ticks) in various power states
system.mem_ctrls1.bytes_read::ruby.dir_cntrl1      8775104                       # Number of bytes read from this memory
system.mem_ctrls1.bytes_read::total           8775104                       # Number of bytes read from this memory
system.mem_ctrls1.bytes_written::ruby.dir_cntrl1      1377536                       # Number of bytes written to this memory
system.mem_ctrls1.bytes_written::total        1377536                       # Number of bytes written to this memory
system.mem_ctrls1.num_reads::ruby.dir_cntrl1       137111                       # Number of read requests responded to by this memory
system.mem_ctrls1.num_reads::total             137111                       # Number of read requests responded to by this memory
system.mem_ctrls1.num_writes::ruby.dir_cntrl1        21524                       # Number of write requests responded to by this memory
system.mem_ctrls1.num_writes::total             21524                       # Number of write requests responded to by this memory
system.mem_ctrls1.bw_read::ruby.dir_cntrl1    656411754                       # Total read bandwidth from this memory (bytes/s)
system.mem_ctrls1.bw_read::total            656411754                       # Total read bandwidth from this memory (bytes/s)
system.mem_ctrls1.bw_write::ruby.dir_cntrl1    103045026                       # Write bandwidth from this memory (bytes/s)
system.mem_ctrls1.bw_write::total           103045026                       # Write bandwidth from this memory (bytes/s)
system.mem_ctrls1.bw_total::ruby.dir_cntrl1    759456780                       # Total bandwidth to/from this memory (bytes/s)
system.mem_ctrls1.bw_total::total           759456780                       # Total bandwidth to/from this memory (bytes/s)
system.mem_ctrls1.readReqs                     137111                       # Number of read requests accepted
system.mem_ctrls1.avgNetLat                      0.00                       # Average network latency to DRAM controller
system.mem_ctrls1.writeReqs                     21524                       # Number of write requests accepted
system.mem_ctrls1.readBursts                   137111                       # Number of DRAM read bursts, including those serviced by the write queue
system.mem_ctrls1.writeBursts                   21524                       # Number of DRAM write bursts, including those merged in the write queue
system.mem_ctrls1.bytesReadDRAM               8774080                       # Total number of bytes read from DRAM
system.mem_ctrls1.bytesReadWrQ                   1024                       # Total number of bytes read from write queue
system.mem_ctrls1.bytesWritten                1376000                       # Total number of bytes written to DRAM
system.mem_ctrls1.bytesReadSys                8775104                       # Total read bytes from the system interface side
system.mem_ctrls1.bytesWrittenSys             1377536                       # Total written bytes from the system interface side
system.mem_ctrls1.servicedByWrQ                    16                       # Number of DRAM read bursts serviced by the write queue
system.mem_ctrls1.mergedWrBursts                    0                       # Number of DRAM write bursts merged with an existing one
system.mem_ctrls1.neitherReadNorWriteReqs            0                       # Number of requests that are neither read nor write
system.mem_ctrls1.perBankRdBursts::0             8499                       # Per bank write bursts
system.mem_ctrls1.perBankRdBursts::1             8375                       # Per bank write bursts
system.mem_ctrls1.perBankRdBursts::2             8252                       # Per bank write bursts
system.mem_ctrls1.perBankRdBursts::3             8366                       # Per bank write bursts
system.mem_ctrls1.perBankRdBursts::4             8192                       # Per bank write bursts
system.mem_ctrls1.perBankRdBursts::5             8167                       # Per bank write bursts
system.mem_ctrls1.perBankRdBursts::6             8462                       # Per bank write bursts
system.mem_ctrls1.perBankRdBursts::7             8196                       # Per bank write bursts
system.mem_ctrls1.perBankRdBursts::8             8298                       # Per bank write bursts
system.mem_ctrls1.perBankRdBursts::9             8446                       # Per bank write bursts
system.mem_ctrls1.perBankRdBursts::10            8852                       # Per bank write bursts
system.mem_ctrls1.perBankRdBursts::11            8750                       # Per bank write bursts
system.mem_ctrls1.perBankRdBursts::12            9347                       # Per bank write bursts
system.mem_ctrls1.perBankRdBursts::13            9467                       # Per bank write bursts
system.mem_ctrls1.perBankRdBursts::14            8795                       # Per bank write bursts
system.mem_ctrls1.perBankRdBursts::15            8631                       # Per bank write bursts
system.mem_ctrls1.perBankWrBursts::0             1205                       # Per bank write bursts
system.mem_ctrls1.perBankWrBursts::1             1227                       # Per bank write bursts
system.mem_ctrls1.perBankWrBursts::2             1301                       # Per bank write bursts
system.mem_ctrls1.perBankWrBursts::3             1399                       # Per bank write bursts
system.mem_ctrls1.perBankWrBursts::4             1479                       # Per bank write bursts
system.mem_ctrls1.perBankWrBursts::5             1439                       # Per bank write bursts
system.mem_ctrls1.perBankWrBursts::6             1445                       # Per bank write bursts
system.mem_ctrls1.perBankWrBursts::7             1396                       # Per bank write bursts
system.mem_ctrls1.perBankWrBursts::8             1256                       # Per bank write bursts
system.mem_ctrls1.perBankWrBursts::9             1229                       # Per bank write bursts
system.mem_ctrls1.perBankWrBursts::10            1212                       # Per bank write bursts
system.mem_ctrls1.perBankWrBursts::11            1391                       # Per bank write bursts
system.mem_ctrls1.perBankWrBursts::12            1445                       # Per bank write bursts
system.mem_ctrls1.perBankWrBursts::13            1392                       # Per bank write bursts
system.mem_ctrls1.perBankWrBursts::14            1369                       # Per bank write bursts
system.mem_ctrls1.perBankWrBursts::15            1315                       # Per bank write bursts
system.mem_ctrls1.numRdRetry                        0                       # Number of times read queue was full causing retry
system.mem_ctrls1.numWrRetry                        0                       # Number of times write queue was full causing retry
system.mem_ctrls1.totGap                  13367846500                       # Total gap between requests
system.mem_ctrls1.readPktSize::0                    0                       # Read request sizes (log2)
system.mem_ctrls1.readPktSize::1                    0                       # Read request sizes (log2)
system.mem_ctrls1.readPktSize::2                    0                       # Read request sizes (log2)
system.mem_ctrls1.readPktSize::3                    0                       # Read request sizes (log2)
system.mem_ctrls1.readPktSize::4                    0                       # Read request sizes (log2)
system.mem_ctrls1.readPktSize::5                    0                       # Read request sizes (log2)
system.mem_ctrls1.readPktSize::6               137111                       # Read request sizes (log2)
system.mem_ctrls1.writePktSize::0                   0                       # Write request sizes (log2)
system.mem_ctrls1.writePktSize::1                   0                       # Write request sizes (log2)
system.mem_ctrls1.writePktSize::2                   0                       # Write request sizes (log2)
system.mem_ctrls1.writePktSize::3                   0                       # Write request sizes (log2)
system.mem_ctrls1.writePktSize::4                   0                       # Write request sizes (log2)
system.mem_ctrls1.writePktSize::5                   0                       # Write request sizes (log2)
system.mem_ctrls1.writePktSize::6               21524                       # Write request sizes (log2)
system.mem_ctrls1.rdQLenPdf::0                  66716                       # What read queue length does an incoming req see
system.mem_ctrls1.rdQLenPdf::1                  34928                       # What read queue length does an incoming req see
system.mem_ctrls1.rdQLenPdf::2                  17795                       # What read queue length does an incoming req see
system.mem_ctrls1.rdQLenPdf::3                   9262                       # What read queue length does an incoming req see
system.mem_ctrls1.rdQLenPdf::4                   4704                       # What read queue length does an incoming req see
system.mem_ctrls1.rdQLenPdf::5                   2309                       # What read queue length does an incoming req see
system.mem_ctrls1.rdQLenPdf::6                    886                       # What read queue length does an incoming req see
system.mem_ctrls1.rdQLenPdf::7                    343                       # What read queue length does an incoming req see
system.mem_ctrls1.rdQLenPdf::8                    123                       # What read queue length does an incoming req see
system.mem_ctrls1.rdQLenPdf::9                     26                       # What read queue length does an incoming req see
system.mem_ctrls1.rdQLenPdf::10                     3                       # What read queue length does an incoming req see
system.mem_ctrls1.rdQLenPdf::11                     0                       # What read queue length does an incoming req see
system.mem_ctrls1.rdQLenPdf::12                     0                       # What read queue length does an incoming req see
system.mem_ctrls1.rdQLenPdf::13                     0                       # What read queue length does an incoming req see
system.mem_ctrls1.rdQLenPdf::14                     0                       # What read queue length does an incoming req see
system.mem_ctrls1.rdQLenPdf::15                     0                       # What read queue length does an incoming req see
system.mem_ctrls1.rdQLenPdf::16                     0                       # What read queue length does an incoming req see
system.mem_ctrls1.rdQLenPdf::17                     0                       # What read queue length does an incoming req see
system.mem_ctrls1.rdQLenPdf::18                     0                       # What read queue length does an incoming req see
system.mem_ctrls1.rdQLenPdf::19                     0                       # What read queue length does an incoming req see
system.mem_ctrls1.rdQLenPdf::20                     0                       # What read queue length does an incoming req see
system.mem_ctrls1.rdQLenPdf::21                     0                       # What read queue length does an incoming req see
system.mem_ctrls1.rdQLenPdf::22                     0                       # What read queue length does an incoming req see
system.mem_ctrls1.rdQLenPdf::23                     0                       # What read queue length does an incoming req see
system.mem_ctrls1.rdQLenPdf::24                     0                       # What read queue length does an incoming req see
system.mem_ctrls1.rdQLenPdf::25                     0                       # What read queue length does an incoming req see
system.mem_ctrls1.rdQLenPdf::26                     0                       # What read queue length does an incoming req see
system.mem_ctrls1.rdQLenPdf::27                     0                       # What read queue length does an incoming req see
system.mem_ctrls1.rdQLenPdf::28                     0                       # What read queue length does an incoming req see
system.mem_ctrls1.rdQLenPdf::29                     0                       # What read queue length does an incoming req see
system.mem_ctrls1.rdQLenPdf::30                     0                       # What read queue length does an incoming req see
system.mem_ctrls1.rdQLenPdf::31                     0                       # What read queue length does an incoming req see
system.mem_ctrls1.wrQLenPdf::0                      1                       # What write queue length does an incoming req see
system.mem_ctrls1.wrQLenPdf::1                      1                       # What write queue length does an incoming req see
system.mem_ctrls1.wrQLenPdf::2                      1                       # What write queue length does an incoming req see
system.mem_ctrls1.wrQLenPdf::3                      1                       # What write queue length does an incoming req see
system.mem_ctrls1.wrQLenPdf::4                      1                       # What write queue length does an incoming req see
system.mem_ctrls1.wrQLenPdf::5                      1                       # What write queue length does an incoming req see
system.mem_ctrls1.wrQLenPdf::6                      1                       # What write queue length does an incoming req see
system.mem_ctrls1.wrQLenPdf::7                      1                       # What write queue length does an incoming req see
system.mem_ctrls1.wrQLenPdf::8                      1                       # What write queue length does an incoming req see
system.mem_ctrls1.wrQLenPdf::9                      1                       # What write queue length does an incoming req see
system.mem_ctrls1.wrQLenPdf::10                     1                       # What write queue length does an incoming req see
system.mem_ctrls1.wrQLenPdf::11                     1                       # What write queue length does an incoming req see
system.mem_ctrls1.wrQLenPdf::12                     1                       # What write queue length does an incoming req see
system.mem_ctrls1.wrQLenPdf::13                     1                       # What write queue length does an incoming req see
system.mem_ctrls1.wrQLenPdf::14                     1                       # What write queue length does an incoming req see
system.mem_ctrls1.wrQLenPdf::15                   504                       # What write queue length does an incoming req see
system.mem_ctrls1.wrQLenPdf::16                   560                       # What write queue length does an incoming req see
system.mem_ctrls1.wrQLenPdf::17                   948                       # What write queue length does an incoming req see
system.mem_ctrls1.wrQLenPdf::18                  1230                       # What write queue length does an incoming req see
system.mem_ctrls1.wrQLenPdf::19                  1298                       # What write queue length does an incoming req see
system.mem_ctrls1.wrQLenPdf::20                  1305                       # What write queue length does an incoming req see
system.mem_ctrls1.wrQLenPdf::21                  1313                       # What write queue length does an incoming req see
system.mem_ctrls1.wrQLenPdf::22                  1296                       # What write queue length does an incoming req see
system.mem_ctrls1.wrQLenPdf::23                  1312                       # What write queue length does an incoming req see
system.mem_ctrls1.wrQLenPdf::24                  1306                       # What write queue length does an incoming req see
system.mem_ctrls1.wrQLenPdf::25                  1303                       # What write queue length does an incoming req see
system.mem_ctrls1.wrQLenPdf::26                  1316                       # What write queue length does an incoming req see
system.mem_ctrls1.wrQLenPdf::27                  1312                       # What write queue length does an incoming req see
system.mem_ctrls1.wrQLenPdf::28                  1323                       # What write queue length does an incoming req see
system.mem_ctrls1.wrQLenPdf::29                  1312                       # What write queue length does an incoming req see
system.mem_ctrls1.wrQLenPdf::30                  1300                       # What write queue length does an incoming req see
system.mem_ctrls1.wrQLenPdf::31                  1280                       # What write queue length does an incoming req see
system.mem_ctrls1.wrQLenPdf::32                  1273                       # What write queue length does an incoming req see
system.mem_ctrls1.wrQLenPdf::33                    16                       # What write queue length does an incoming req see
system.mem_ctrls1.wrQLenPdf::34                     2                       # What write queue length does an incoming req see
system.mem_ctrls1.wrQLenPdf::35                     0                       # What write queue length does an incoming req see
system.mem_ctrls1.wrQLenPdf::36                     0                       # What write queue length does an incoming req see
system.mem_ctrls1.wrQLenPdf::37                     0                       # What write queue length does an incoming req see
system.mem_ctrls1.wrQLenPdf::38                     0                       # What write queue length does an incoming req see
system.mem_ctrls1.wrQLenPdf::39                     0                       # What write queue length does an incoming req see
system.mem_ctrls1.wrQLenPdf::40                     0                       # What write queue length does an incoming req see
system.mem_ctrls1.wrQLenPdf::41                     0                       # What write queue length does an incoming req see
system.mem_ctrls1.wrQLenPdf::42                     0                       # What write queue length does an incoming req see
system.mem_ctrls1.wrQLenPdf::43                     0                       # What write queue length does an incoming req see
system.mem_ctrls1.wrQLenPdf::44                     0                       # What write queue length does an incoming req see
system.mem_ctrls1.wrQLenPdf::45                     0                       # What write queue length does an incoming req see
system.mem_ctrls1.wrQLenPdf::46                     0                       # What write queue length does an incoming req see
system.mem_ctrls1.wrQLenPdf::47                     0                       # What write queue length does an incoming req see
system.mem_ctrls1.wrQLenPdf::48                     0                       # What write queue length does an incoming req see
system.mem_ctrls1.wrQLenPdf::49                     0                       # What write queue length does an incoming req see
system.mem_ctrls1.wrQLenPdf::50                     0                       # What write queue length does an incoming req see
system.mem_ctrls1.wrQLenPdf::51                     0                       # What write queue length does an incoming req see
system.mem_ctrls1.wrQLenPdf::52                     0                       # What write queue length does an incoming req see
system.mem_ctrls1.wrQLenPdf::53                     0                       # What write queue length does an incoming req see
system.mem_ctrls1.wrQLenPdf::54                     0                       # What write queue length does an incoming req see
system.mem_ctrls1.wrQLenPdf::55                     0                       # What write queue length does an incoming req see
system.mem_ctrls1.wrQLenPdf::56                     0                       # What write queue length does an incoming req see
system.mem_ctrls1.wrQLenPdf::57                     0                       # What write queue length does an incoming req see
system.mem_ctrls1.wrQLenPdf::58                     0                       # What write queue length does an incoming req see
system.mem_ctrls1.wrQLenPdf::59                     0                       # What write queue length does an incoming req see
system.mem_ctrls1.wrQLenPdf::60                     0                       # What write queue length does an incoming req see
system.mem_ctrls1.wrQLenPdf::61                     0                       # What write queue length does an incoming req see
system.mem_ctrls1.wrQLenPdf::62                     0                       # What write queue length does an incoming req see
system.mem_ctrls1.wrQLenPdf::63                     0                       # What write queue length does an incoming req see
system.mem_ctrls1.bytesPerActivate::samples        82687                       # Bytes accessed per row activation
system.mem_ctrls1.bytesPerActivate::mean   122.747614                       # Bytes accessed per row activation
system.mem_ctrls1.bytesPerActivate::gmean    92.235571                       # Bytes accessed per row activation
system.mem_ctrls1.bytesPerActivate::stdev   136.793210                       # Bytes accessed per row activation
system.mem_ctrls1.bytesPerActivate::0-127        56815     68.71%     68.71% # Bytes accessed per row activation
system.mem_ctrls1.bytesPerActivate::128-255        16397     19.83%     88.54% # Bytes accessed per row activation
system.mem_ctrls1.bytesPerActivate::256-383         3749      4.53%     93.08% # Bytes accessed per row activation
system.mem_ctrls1.bytesPerActivate::384-511         2227      2.69%     95.77% # Bytes accessed per row activation
system.mem_ctrls1.bytesPerActivate::512-639         1384      1.67%     97.44% # Bytes accessed per row activation
system.mem_ctrls1.bytesPerActivate::640-767         1545      1.87%     99.31% # Bytes accessed per row activation
system.mem_ctrls1.bytesPerActivate::768-895          121      0.15%     99.46% # Bytes accessed per row activation
system.mem_ctrls1.bytesPerActivate::896-1023           83      0.10%     99.56% # Bytes accessed per row activation
system.mem_ctrls1.bytesPerActivate::1024-1151          366      0.44%    100.00% # Bytes accessed per row activation
system.mem_ctrls1.bytesPerActivate::total        82687                       # Bytes accessed per row activation
system.mem_ctrls1.rdPerTurnAround::samples         1268                       # Reads before turning the bus around for writes
system.mem_ctrls1.rdPerTurnAround::mean    108.111987                       # Reads before turning the bus around for writes
system.mem_ctrls1.rdPerTurnAround::gmean    31.383463                       # Reads before turning the bus around for writes
system.mem_ctrls1.rdPerTurnAround::stdev  2011.990259                       # Reads before turning the bus around for writes
system.mem_ctrls1.rdPerTurnAround::0-4095         1267     99.92%     99.92% # Reads before turning the bus around for writes
system.mem_ctrls1.rdPerTurnAround::69632-73727            1      0.08%    100.00% # Reads before turning the bus around for writes
system.mem_ctrls1.rdPerTurnAround::total         1268                       # Reads before turning the bus around for writes
system.mem_ctrls1.wrPerTurnAround::samples         1268                       # Writes before turning the bus around for reads
system.mem_ctrls1.wrPerTurnAround::mean     16.955836                       # Writes before turning the bus around for reads
system.mem_ctrls1.wrPerTurnAround::gmean    16.920074                       # Writes before turning the bus around for reads
system.mem_ctrls1.wrPerTurnAround::stdev     1.113711                       # Writes before turning the bus around for reads
system.mem_ctrls1.wrPerTurnAround::16             692     54.57%     54.57% # Writes before turning the bus around for reads
system.mem_ctrls1.wrPerTurnAround::17              50      3.94%     58.52% # Writes before turning the bus around for reads
system.mem_ctrls1.wrPerTurnAround::18             429     33.83%     92.35% # Writes before turning the bus around for reads
system.mem_ctrls1.wrPerTurnAround::19              84      6.62%     98.97% # Writes before turning the bus around for reads
system.mem_ctrls1.wrPerTurnAround::20              13      1.03%    100.00% # Writes before turning the bus around for reads
system.mem_ctrls1.wrPerTurnAround::total         1268                       # Writes before turning the bus around for reads
system.mem_ctrls1.totQLat                  3664926500                       # Total ticks spent queuing
system.mem_ctrls1.totMemAccLat             6235457750                       # Total ticks spent from burst creation until serviced by the DRAM
system.mem_ctrls1.totBusLat                 685475000                       # Total ticks spent in databus transfers
system.mem_ctrls1.avgQLat                    26732.75                       # Average queueing delay per DRAM burst
system.mem_ctrls1.avgBusLat                   5000.00                       # Average bus latency per DRAM burst
system.mem_ctrls1.avgMemAccLat               45482.75                       # Average memory access latency per DRAM burst
system.mem_ctrls1.avgRdBW                      656.34                       # Average DRAM read bandwidth in MiByte/s
system.mem_ctrls1.avgWrBW                      102.93                       # Average achieved write bandwidth in MiByte/s
system.mem_ctrls1.avgRdBWSys                   656.41                       # Average system read bandwidth in MiByte/s
system.mem_ctrls1.avgWrBWSys                   103.05                       # Average system write bandwidth in MiByte/s
system.mem_ctrls1.peakBW                     12800.00                       # Theoretical peak bandwidth in MiByte/s
system.mem_ctrls1.busUtil                        5.93                       # Data bus utilization in percentage
system.mem_ctrls1.busUtilRead                    5.13                       # Data bus utilization in percentage for reads
system.mem_ctrls1.busUtilWrite                   0.80                       # Data bus utilization in percentage for writes
system.mem_ctrls1.avgRdQLen                      1.57                       # Average read queue length when enqueuing
system.mem_ctrls1.avgWrQLen                     10.37                       # Average write queue length when enqueuing
system.mem_ctrls1.readRowHits                   69378                       # Number of row buffer hits during reads
system.mem_ctrls1.writeRowHits                   6525                       # Number of row buffer hits during writes
system.mem_ctrls1.readRowHitRate                50.61                       # Row buffer hit rate for reads
system.mem_ctrls1.writeRowHitRate               30.31                       # Row buffer hit rate for writes
system.mem_ctrls1.avgGap                     84267.95                       # Average gap between requests
system.mem_ctrls1.pageHitRate                   47.85                       # Row buffer hit rate, read and write combined
system.mem_ctrls1_0.actEnergy               280609140                       # Energy for activate commands per rank (pJ)
system.mem_ctrls1_0.preEnergy               149132115                       # Energy for precharge commands per rank (pJ)
system.mem_ctrls1_0.readEnergy              474874260                       # Energy for read commands per rank (pJ)
system.mem_ctrls1_0.writeEnergy              56851020                       # Energy for write commands per rank (pJ)
system.mem_ctrls1_0.refreshEnergy        1059639360.000000                       # Energy for refresh commands per rank (pJ)
system.mem_ctrls1_0.actBackEnergy          1308578640                       # Energy for active background per rank (pJ)
system.mem_ctrls1_0.preBackEnergy            25382400                       # Energy for precharge background per rank (pJ)
system.mem_ctrls1_0.actPowerDownEnergy     4354597650                       # Energy for active power-down per rank (pJ)
system.mem_ctrls1_0.prePowerDownEnergy      308883360                       # Energy for precharge power-down per rank (pJ)
system.mem_ctrls1_0.selfRefreshEnergy        29405970                       # Energy for self refresh per rank (pJ)
system.mem_ctrls1_0.totalEnergy            8048038575                       # Total energy per rank (pJ)
system.mem_ctrls1_0.averagePower           602.024423                       # Core power per rank (mW)
system.mem_ctrls1_0.totalIdleTime         10432495000                       # Total Idle time Per DRAM Rank
system.mem_ctrls1_0.memoryStateTime::IDLE     15112500                       # Time in different power states
system.mem_ctrls1_0.memoryStateTime::REF    448366000                       # Time in different power states
system.mem_ctrls1_0.memoryStateTime::SREF     78373250                       # Time in different power states
system.mem_ctrls1_0.memoryStateTime::PRE_PDN    804184500                       # Time in different power states
system.mem_ctrls1_0.memoryStateTime::ACT   2472201000                       # Time in different power states
system.mem_ctrls1_0.memoryStateTime::ACT_PDN   9550054750                       # Time in different power states
system.mem_ctrls1_1.actEnergy               309811740                       # Energy for activate commands per rank (pJ)
system.mem_ctrls1_1.preEnergy               164665050                       # Energy for precharge commands per rank (pJ)
system.mem_ctrls1_1.readEnergy              503984040                       # Energy for read commands per rank (pJ)
system.mem_ctrls1_1.writeEnergy              55378980                       # Energy for write commands per rank (pJ)
system.mem_ctrls1_1.refreshEnergy        1060254000.000000                       # Energy for refresh commands per rank (pJ)
system.mem_ctrls1_1.actBackEnergy          1420313460                       # Energy for active background per rank (pJ)
system.mem_ctrls1_1.preBackEnergy            26090880                       # Energy for precharge background per rank (pJ)
system.mem_ctrls1_1.actPowerDownEnergy     4284148500                       # Energy for active power-down per rank (pJ)
system.mem_ctrls1_1.prePowerDownEnergy      272326560                       # Energy for precharge power-down per rank (pJ)
system.mem_ctrls1_1.selfRefreshEnergy        30634110                       # Energy for self refresh per rank (pJ)
system.mem_ctrls1_1.totalEnergy            8127800280                       # Total energy per rank (pJ)
system.mem_ctrls1_1.averagePower           607.990907                       # Core power per rank (mW)
system.mem_ctrls1_1.totalIdleTime         10185098500                       # Total Idle time Per DRAM Rank
system.mem_ctrls1_1.memoryStateTime::IDLE     17543000                       # Time in different power states
system.mem_ctrls1_1.memoryStateTime::REF    448632000                       # Time in different power states
system.mem_ctrls1_1.memoryStateTime::SREF     80952750                       # Time in different power states
system.mem_ctrls1_1.memoryStateTime::PRE_PDN    708957500                       # Time in different power states
system.mem_ctrls1_1.memoryStateTime::ACT   2716641250                       # Time in different power states
system.mem_ctrls1_1.memoryStateTime::ACT_PDN   9395565500                       # Time in different power states
system.mem_ctrls2.pwrStateResidencyTicks::UNDEFINED  13368292000                       # Cumulative time (in ticks) in various power states
system.mem_ctrls2.bytes_read::ruby.dir_cntrl2      8693184                       # Number of bytes read from this memory
system.mem_ctrls2.bytes_read::total           8693184                       # Number of bytes read from this memory
system.mem_ctrls2.bytes_written::ruby.dir_cntrl2      1360320                       # Number of bytes written to this memory
system.mem_ctrls2.bytes_written::total        1360320                       # Number of bytes written to this memory
system.mem_ctrls2.num_reads::ruby.dir_cntrl2       135831                       # Number of read requests responded to by this memory
system.mem_ctrls2.num_reads::total             135831                       # Number of read requests responded to by this memory
system.mem_ctrls2.num_writes::ruby.dir_cntrl2        21255                       # Number of write requests responded to by this memory
system.mem_ctrls2.num_writes::total             21255                       # Number of write requests responded to by this memory
system.mem_ctrls2.bw_read::ruby.dir_cntrl2    650283821                       # Total read bandwidth from this memory (bytes/s)
system.mem_ctrls2.bw_read::total            650283821                       # Total read bandwidth from this memory (bytes/s)
system.mem_ctrls2.bw_write::ruby.dir_cntrl2    101757203                       # Write bandwidth from this memory (bytes/s)
system.mem_ctrls2.bw_write::total           101757203                       # Write bandwidth from this memory (bytes/s)
system.mem_ctrls2.bw_total::ruby.dir_cntrl2    752041024                       # Total bandwidth to/from this memory (bytes/s)
system.mem_ctrls2.bw_total::total           752041024                       # Total bandwidth to/from this memory (bytes/s)
system.mem_ctrls2.readReqs                     135831                       # Number of read requests accepted
system.mem_ctrls2.avgNetLat                      0.00                       # Average network latency to DRAM controller
system.mem_ctrls2.writeReqs                     21255                       # Number of write requests accepted
system.mem_ctrls2.readBursts                   135831                       # Number of DRAM read bursts, including those serviced by the write queue
system.mem_ctrls2.writeBursts                   21255                       # Number of DRAM write bursts, including those merged in the write queue
system.mem_ctrls2.bytesReadDRAM               8692480                       # Total number of bytes read from DRAM
system.mem_ctrls2.bytesReadWrQ                    704                       # Total number of bytes read from write queue
system.mem_ctrls2.bytesWritten                1358592                       # Total number of bytes written to DRAM
system.mem_ctrls2.bytesReadSys                8693184                       # Total read bytes from the system interface side
system.mem_ctrls2.bytesWrittenSys             1360320                       # Total written bytes from the system interface side
system.mem_ctrls2.servicedByWrQ                    11                       # Number of DRAM read bursts serviced by the write queue
system.mem_ctrls2.mergedWrBursts                    0                       # Number of DRAM write bursts merged with an existing one
system.mem_ctrls2.neitherReadNorWriteReqs            0                       # Number of requests that are neither read nor write
system.mem_ctrls2.perBankRdBursts::0             8446                       # Per bank write bursts
system.mem_ctrls2.perBankRdBursts::1             8238                       # Per bank write bursts
system.mem_ctrls2.perBankRdBursts::2             8158                       # Per bank write bursts
system.mem_ctrls2.perBankRdBursts::3             8287                       # Per bank write bursts
system.mem_ctrls2.perBankRdBursts::4             8099                       # Per bank write bursts
system.mem_ctrls2.perBankRdBursts::5             8048                       # Per bank write bursts
system.mem_ctrls2.perBankRdBursts::6             8371                       # Per bank write bursts
system.mem_ctrls2.perBankRdBursts::7             8151                       # Per bank write bursts
system.mem_ctrls2.perBankRdBursts::8             8194                       # Per bank write bursts
system.mem_ctrls2.perBankRdBursts::9             8364                       # Per bank write bursts
system.mem_ctrls2.perBankRdBursts::10            8818                       # Per bank write bursts
system.mem_ctrls2.perBankRdBursts::11            8664                       # Per bank write bursts
system.mem_ctrls2.perBankRdBursts::12            9279                       # Per bank write bursts
system.mem_ctrls2.perBankRdBursts::13            9434                       # Per bank write bursts
system.mem_ctrls2.perBankRdBursts::14            8729                       # Per bank write bursts
system.mem_ctrls2.perBankRdBursts::15            8540                       # Per bank write bursts
system.mem_ctrls2.perBankWrBursts::0             1229                       # Per bank write bursts
system.mem_ctrls2.perBankWrBursts::1             1181                       # Per bank write bursts
system.mem_ctrls2.perBankWrBursts::2             1279                       # Per bank write bursts
system.mem_ctrls2.perBankWrBursts::3             1366                       # Per bank write bursts
system.mem_ctrls2.perBankWrBursts::4             1472                       # Per bank write bursts
system.mem_ctrls2.perBankWrBursts::5             1411                       # Per bank write bursts
system.mem_ctrls2.perBankWrBursts::6             1412                       # Per bank write bursts
system.mem_ctrls2.perBankWrBursts::7             1358                       # Per bank write bursts
system.mem_ctrls2.perBankWrBursts::8             1225                       # Per bank write bursts
system.mem_ctrls2.perBankWrBursts::9             1226                       # Per bank write bursts
system.mem_ctrls2.perBankWrBursts::10            1206                       # Per bank write bursts
system.mem_ctrls2.perBankWrBursts::11            1405                       # Per bank write bursts
system.mem_ctrls2.perBankWrBursts::12            1414                       # Per bank write bursts
system.mem_ctrls2.perBankWrBursts::13            1393                       # Per bank write bursts
system.mem_ctrls2.perBankWrBursts::14            1360                       # Per bank write bursts
system.mem_ctrls2.perBankWrBursts::15            1291                       # Per bank write bursts
system.mem_ctrls2.numRdRetry                        0                       # Number of times read queue was full causing retry
system.mem_ctrls2.numWrRetry                        0                       # Number of times write queue was full causing retry
system.mem_ctrls2.totGap                  13367399000                       # Total gap between requests
system.mem_ctrls2.readPktSize::0                    0                       # Read request sizes (log2)
system.mem_ctrls2.readPktSize::1                    0                       # Read request sizes (log2)
system.mem_ctrls2.readPktSize::2                    0                       # Read request sizes (log2)
system.mem_ctrls2.readPktSize::3                    0                       # Read request sizes (log2)
system.mem_ctrls2.readPktSize::4                    0                       # Read request sizes (log2)
system.mem_ctrls2.readPktSize::5                    0                       # Read request sizes (log2)
system.mem_ctrls2.readPktSize::6               135831                       # Read request sizes (log2)
system.mem_ctrls2.writePktSize::0                   0                       # Write request sizes (log2)
system.mem_ctrls2.writePktSize::1                   0                       # Write request sizes (log2)
system.mem_ctrls2.writePktSize::2                   0                       # Write request sizes (log2)
system.mem_ctrls2.writePktSize::3                   0                       # Write request sizes (log2)
system.mem_ctrls2.writePktSize::4                   0                       # Write request sizes (log2)
system.mem_ctrls2.writePktSize::5                   0                       # Write request sizes (log2)
system.mem_ctrls2.writePktSize::6               21255                       # Write request sizes (log2)
system.mem_ctrls2.rdQLenPdf::0                  65875                       # What read queue length does an incoming req see
system.mem_ctrls2.rdQLenPdf::1                  34532                       # What read queue length does an incoming req see
system.mem_ctrls2.rdQLenPdf::2                  17589                       # What read queue length does an incoming req see
system.mem_ctrls2.rdQLenPdf::3                   9253                       # What read queue length does an incoming req see
system.mem_ctrls2.rdQLenPdf::4                   4768                       # What read queue length does an incoming req see
system.mem_ctrls2.rdQLenPdf::5                   2241                       # What read queue length does an incoming req see
system.mem_ctrls2.rdQLenPdf::6                    996                       # What read queue length does an incoming req see
system.mem_ctrls2.rdQLenPdf::7                    396                       # What read queue length does an incoming req see
system.mem_ctrls2.rdQLenPdf::8                    126                       # What read queue length does an incoming req see
system.mem_ctrls2.rdQLenPdf::9                     40                       # What read queue length does an incoming req see
system.mem_ctrls2.rdQLenPdf::10                     4                       # What read queue length does an incoming req see
system.mem_ctrls2.rdQLenPdf::11                     0                       # What read queue length does an incoming req see
system.mem_ctrls2.rdQLenPdf::12                     0                       # What read queue length does an incoming req see
system.mem_ctrls2.rdQLenPdf::13                     0                       # What read queue length does an incoming req see
system.mem_ctrls2.rdQLenPdf::14                     0                       # What read queue length does an incoming req see
system.mem_ctrls2.rdQLenPdf::15                     0                       # What read queue length does an incoming req see
system.mem_ctrls2.rdQLenPdf::16                     0                       # What read queue length does an incoming req see
system.mem_ctrls2.rdQLenPdf::17                     0                       # What read queue length does an incoming req see
system.mem_ctrls2.rdQLenPdf::18                     0                       # What read queue length does an incoming req see
system.mem_ctrls2.rdQLenPdf::19                     0                       # What read queue length does an incoming req see
system.mem_ctrls2.rdQLenPdf::20                     0                       # What read queue length does an incoming req see
system.mem_ctrls2.rdQLenPdf::21                     0                       # What read queue length does an incoming req see
system.mem_ctrls2.rdQLenPdf::22                     0                       # What read queue length does an incoming req see
system.mem_ctrls2.rdQLenPdf::23                     0                       # What read queue length does an incoming req see
system.mem_ctrls2.rdQLenPdf::24                     0                       # What read queue length does an incoming req see
system.mem_ctrls2.rdQLenPdf::25                     0                       # What read queue length does an incoming req see
system.mem_ctrls2.rdQLenPdf::26                     0                       # What read queue length does an incoming req see
system.mem_ctrls2.rdQLenPdf::27                     0                       # What read queue length does an incoming req see
system.mem_ctrls2.rdQLenPdf::28                     0                       # What read queue length does an incoming req see
system.mem_ctrls2.rdQLenPdf::29                     0                       # What read queue length does an incoming req see
system.mem_ctrls2.rdQLenPdf::30                     0                       # What read queue length does an incoming req see
system.mem_ctrls2.rdQLenPdf::31                     0                       # What read queue length does an incoming req see
system.mem_ctrls2.wrQLenPdf::0                      1                       # What write queue length does an incoming req see
system.mem_ctrls2.wrQLenPdf::1                      1                       # What write queue length does an incoming req see
system.mem_ctrls2.wrQLenPdf::2                      1                       # What write queue length does an incoming req see
system.mem_ctrls2.wrQLenPdf::3                      1                       # What write queue length does an incoming req see
system.mem_ctrls2.wrQLenPdf::4                      1                       # What write queue length does an incoming req see
system.mem_ctrls2.wrQLenPdf::5                      1                       # What write queue length does an incoming req see
system.mem_ctrls2.wrQLenPdf::6                      1                       # What write queue length does an incoming req see
system.mem_ctrls2.wrQLenPdf::7                      1                       # What write queue length does an incoming req see
system.mem_ctrls2.wrQLenPdf::8                      1                       # What write queue length does an incoming req see
system.mem_ctrls2.wrQLenPdf::9                      1                       # What write queue length does an incoming req see
system.mem_ctrls2.wrQLenPdf::10                     1                       # What write queue length does an incoming req see
system.mem_ctrls2.wrQLenPdf::11                     1                       # What write queue length does an incoming req see
system.mem_ctrls2.wrQLenPdf::12                     1                       # What write queue length does an incoming req see
system.mem_ctrls2.wrQLenPdf::13                     1                       # What write queue length does an incoming req see
system.mem_ctrls2.wrQLenPdf::14                     1                       # What write queue length does an incoming req see
system.mem_ctrls2.wrQLenPdf::15                   481                       # What write queue length does an incoming req see
system.mem_ctrls2.wrQLenPdf::16                   536                       # What write queue length does an incoming req see
system.mem_ctrls2.wrQLenPdf::17                   934                       # What write queue length does an incoming req see
system.mem_ctrls2.wrQLenPdf::18                  1210                       # What write queue length does an incoming req see
system.mem_ctrls2.wrQLenPdf::19                  1284                       # What write queue length does an incoming req see
system.mem_ctrls2.wrQLenPdf::20                  1297                       # What write queue length does an incoming req see
system.mem_ctrls2.wrQLenPdf::21                  1288                       # What write queue length does an incoming req see
system.mem_ctrls2.wrQLenPdf::22                  1287                       # What write queue length does an incoming req see
[...]
system.ruby.L1Cache_Controller.MR.Store::total          123                      
system.ruby.L1Cache_Controller.MMR.Load  |        1123      5.36%      5.36% |        1902      9.07%     14.43% |        1233      5.88%     20.32% |         973      4.64%     24.96% |         866      4.13%     29.09% |           0      0.00%     29.09% |           0      0.00%     29.09% |        1054      5.03%     34.12% |        5873     28.02%     62.14% |         895      4.27%     66.41% |         799      3.81%     70.22% |         759      3.62%     73.84% |        2362     11.27%     85.11% |         843      4.02%     89.14% |        1147      5.47%     94.61% |        1130      5.39%    100.00%
system.ruby.L1Cache_Controller.MMR.Load::total        20959                      
system.ruby.L1Cache_Controller.MMR.Store |        1520      8.31%      8.31% |         883      4.83%     13.13% |        2115     11.56%     24.70% |        1520      8.31%     33.00% |        1517      8.29%     41.30% |           0      0.00%     41.30% |           0      0.00%     41.30% |        1315      7.19%     48.48% |         879      4.80%     53.29% |         688      3.76%     57.05% |         941      5.14%     62.19% |        1000      5.47%     67.66% |        1519      8.30%     75.96% |        1501      8.20%     84.17% |        1446      7.90%     92.07% |        1451      7.93%    100.00%
system.ruby.L1Cache_Controller.MMR.Store::total        18295                      
system.ruby.L1Cache_Controller.IM.Ack    |      154891      8.34%      8.34% |       36694      1.98%     10.32% |      156339      8.42%     18.74% |      153841      8.29%     27.03% |      156413      8.43%     35.46% |        5904      0.32%     35.78% |        5963      0.32%     36.10% |      161947      8.72%     44.82% |       37227      2.01%     46.83% |       37916      2.04%     48.87% |      156147      8.41%     57.28% |      156200      8.41%     65.70% |      162050      8.73%     74.43% |      156529      8.43%     82.86% |      161594      8.71%     91.56% |      156618      8.44%    100.00%
system.ruby.L1Cache_Controller.IM.Ack::total      1856273                      
system.ruby.L1Cache_Controller.IM.Exclusive_Data |       10343      8.33%      8.33% |        2464      1.98%     10.31% |       10440      8.41%     18.72% |       10273      8.27%     26.99% |       10446      8.41%     35.40% |         525      0.42%     35.82% |         525      0.42%     36.24% |       10813      8.71%     44.95% |        2492      2.01%     46.96% |        2545      2.05%     49.01% |       10423      8.39%     57.40% |       10422      8.39%     65.79% |       10814      8.71%     74.49% |       10444      8.41%     82.90% |       10785      8.68%     91.59% |       10449      8.41%    100.00%
system.ruby.L1Cache_Controller.IM.Exclusive_Data::total       124203                      
system.ruby.L1Cache_Controller.SM.Ack    |           4      4.08%      4.08% |           6      6.12%     10.20% |           6      6.12%     16.33% |           5      5.10%     21.43% |           4      4.08%     25.51% |           0      0.00%     25.51% |           0      0.00%     25.51% |           8      8.16%     33.67% |           8      8.16%     41.84% |           3      3.06%     44.90% |          10     10.20%     55.10% |          10     10.20%     65.31% |           8      8.16%     73.47% |           6      6.12%     79.59% |           9      9.18%     88.78% |          11     11.22%    100.00%
system.ruby.L1Cache_Controller.SM.Ack::total           98                      
system.ruby.L1Cache_Controller.SM.Data   |           1      7.14%      7.14% |           1      7.14%     14.29% |           1      7.14%     21.43% |           1      7.14%     28.57% |           1      7.14%     35.71% |           0      0.00%     35.71% |           0      0.00%     35.71% |           1      7.14%     42.86% |           1      7.14%     50.00% |           1      7.14%     57.14% |           1      7.14%     64.29% |           1      7.14%     71.43% |           1      7.14%     78.57% |           1      7.14%     85.71% |           1      7.14%     92.86% |           1      7.14%    100.00%
system.ruby.L1Cache_Controller.SM.Data::total           14                      
system.ruby.L1Cache_Controller.ISM.Ack   |          10     10.20%     10.20% |           8      8.16%     18.37% |           8      8.16%     26.53% |           9      9.18%     35.71% |          10     10.20%     45.92% |           0      0.00%     45.92% |           0      0.00%     45.92% |           6      6.12%     52.04% |           6      6.12%     58.16% |          11     11.22%     69.39% |           4      4.08%     73.47% |           4      4.08%     77.55% |           6      6.12%     83.67% |           8      8.16%     91.84% |           5      5.10%     96.94% |           3      3.06%    100.00%
system.ruby.L1Cache_Controller.ISM.Ack::total           98                      
system.ruby.L1Cache_Controller.ISM.All_acks_no_sharers |           1      7.14%      7.14% |           1      7.14%     14.29% |           1      7.14%     21.43% |           1      7.14%     28.57% |           1      7.14%     35.71% |           0      0.00%     35.71% |           0      0.00%     35.71% |           1      7.14%     42.86% |           1      7.14%     50.00% |           1      7.14%     57.14% |           1      7.14%     64.29% |           1      7.14%     71.43% |           1      7.14%     78.57% |           1      7.14%     85.71% |           1      7.14%     92.86% |           1      7.14%    100.00%
system.ruby.L1Cache_Controller.ISM.All_acks_no_sharers::total           14                      
system.ruby.L1Cache_Controller.M_W.Load  |           1     33.33%     33.33% |           0      0.00%     33.33% |           0      0.00%     33.33% |           0      0.00%     33.33% |           1     33.33%     66.67% |           0      0.00%     66.67% |           0      0.00%     66.67% |           0      0.00%     66.67% |           0      0.00%     66.67% |           0      0.00%     66.67% |           0      0.00%     66.67% |           0      0.00%     66.67% |           1     33.33%    100.00% |           0      0.00%    100.00% |           0      0.00%    100.00% |           0      0.00%    100.00%
system.ruby.L1Cache_Controller.M_W.Load::total            3                      
system.ruby.L1Cache_Controller.M_W.Ifetch |           0      0.00%      0.00% |           0      0.00%      0.00% |           0      0.00%      0.00% |           0      0.00%      0.00% |           0      0.00%      0.00% |           0      0.00%      0.00% |           0      0.00%      0.00% |           0      0.00%      0.00% |           0      0.00%      0.00% |           0      0.00%      0.00% |           2    100.00%    100.00% |           0      0.00%    100.00% |           0      0.00%    100.00% |           0      0.00%    100.00% |           0      0.00%    100.00% |           0      0.00%    100.00%
system.ruby.L1Cache_Controller.M_W.Ifetch::total            2                      
system.ruby.L1Cache_Controller.M_W.Store |           0      0.00%      0.00% |           0      0.00%      0.00% |           2     28.57%     28.57% |           1     14.29%     42.86% |           0      0.00%     42.86% |           0      0.00%     42.86% |           0      0.00%     42.86% |           0      0.00%     42.86% |           2     28.57%     71.43% |           0      0.00%     71.43% |           0      0.00%     71.43% |           0      0.00%     71.43% |           0      0.00%     71.43% |           0      0.00%     71.43% |           2     28.57%    100.00% |           0      0.00%    100.00%
system.ruby.L1Cache_Controller.M_W.Store::total            7                      
system.ruby.L1Cache_Controller.M_W.Ack   |         739      6.95%      6.95% |         701      6.59%     13.54% |         623      5.86%     19.40% |         642      6.04%     25.44% |         746      7.02%     32.46% |        1627     15.30%     47.76% |        1670     15.71%     63.47% |         440      4.14%     67.61% |         385      3.62%     71.23% |         662      6.23%     77.45% |         543      5.11%     82.56% |         320      3.01%     85.57% |         404      3.80%     89.37% |         371      3.49%     92.86% |         536      5.04%     97.90% |         223      2.10%    100.00%
system.ruby.L1Cache_Controller.M_W.Ack::total        10632                      
system.ruby.L1Cache_Controller.M_W.All_acks_no_sharers |       25269      5.94%      5.94% |       50495     11.88%     17.82% |       33372      7.85%     25.68% |       25137      5.91%     31.59% |       17350      4.08%     35.67% |         364      0.09%     35.76% |         364      0.09%     35.84% |       42139      9.91%     45.76% |       58126     13.68%     59.43% |        9519      2.24%     61.67% |        9519      2.24%     63.91% |        9519      2.24%     66.15% |       51021     12.00%     78.15% |       17412      4.10%     82.25% |       42090      9.90%     92.15% |       33351      7.85%    100.00%
system.ruby.L1Cache_Controller.M_W.All_acks_no_sharers::total       425047                      
system.ruby.L1Cache_Controller.MM_W.Store |           0      0.00%      0.00% |           2     33.33%     33.33% |           0      0.00%     33.33% |           0      0.00%     33.33% |           0      0.00%     33.33% |           0      0.00%     33.33% |           0      0.00%     33.33% |           3     50.00%     83.33% |           0      0.00%     83.33% |           0      0.00%     83.33% |           0      0.00%     83.33% |           0      0.00%     83.33% |           1     16.67%    100.00% |           0      0.00%    100.00% |           0      0.00%    100.00% |           0      0.00%    100.00%
system.ruby.L1Cache_Controller.MM_W.Store::total            6                      
system.ruby.L1Cache_Controller.MM_W.Ack  |         228      3.99%      3.99% |         240      4.20%      8.19% |         237      4.15%     12.34% |         229      4.01%     16.34% |         251      4.39%     20.73% |        1621     28.36%     49.10% |        1562     27.33%     76.43% |         222      3.88%     80.31% |         129      2.26%     82.57% |         233      4.08%     86.65% |         172      3.01%     89.66% |         104      1.82%     91.48% |         134      2.34%     93.82% |         105      1.84%     95.66% |         157      2.75%     98.41% |          91      1.59%    100.00%
system.ruby.L1Cache_Controller.MM_W.Ack::total         5715                      
system.ruby.L1Cache_Controller.MM_W.All_acks_no_sharers |       10343      8.33%      8.33% |        2464      1.98%     10.31% |       10442      8.41%     18.72% |       10274      8.27%     26.99% |       10446      8.41%     35.40% |         525      0.42%     35.82% |         525      0.42%     36.24% |       10813      8.71%     44.95% |        2494      2.01%     46.96% |        2545      2.05%     49.01% |       10423      8.39%     57.40% |       10422      8.39%     65.79% |       10814      8.71%     74.49% |       10444      8.41%     82.90% |       10787      8.68%     91.59% |       10449      8.41%    100.00%
system.ruby.L1Cache_Controller.MM_W.All_acks_no_sharers::total       124210                      
system.ruby.L1Cache_Controller.IS.Ack    |      378227      5.94%      5.94% |      756654     11.89%     17.83% |      499915      7.86%     25.69% |      376358      5.91%     31.60% |      259433      4.08%     35.68% |        3469      0.05%     35.74% |        3426      0.05%     35.79% |      631574      9.92%     45.71% |      871466     13.69%     59.41% |      142051      2.23%     61.64% |      142178      2.23%     63.88% |      142398      2.24%     66.11% |      764844     12.02%     78.13% |      260742      4.10%     82.23% |      630777      9.91%     92.14% |      499973      7.86%    100.00%
system.ruby.L1Cache_Controller.IS.Ack::total      6363485                      
system.ruby.L1Cache_Controller.IS.Shared_Data |           1      7.14%      7.14% |           1      7.14%     14.29% |           1      7.14%     21.43% |           1      7.14%     28.57% |           1      7.14%     35.71% |           0      0.00%     35.71% |           0      0.00%     35.71% |           1      7.14%     42.86% |           1      7.14%     50.00% |           1      7.14%     57.14% |           1      7.14%     64.29% |           1      7.14%     71.43% |           1      7.14%     78.57% |           1      7.14%     85.71% |           1      7.14%     92.86% |           1      7.14%    100.00%
system.ruby.L1Cache_Controller.IS.Shared_Data::total           14                      
system.ruby.L1Cache_Controller.IS.Exclusive_Data |       25269      5.94%      5.94% |       50495     11.88%     17.82% |       33374      7.85%     25.68% |       25138      5.91%     31.59% |       17350      4.08%     35.67% |         364      0.09%     35.76% |         364      0.09%     35.84% |       42139      9.91%     45.76% |       58128     13.68%     59.43% |        9519      2.24%     61.67% |        9519      2.24%     63.91% |        9519      2.24%     66.15% |       51021     12.00%     78.15% |       17412      4.10%     82.25% |       42092      9.90%     92.15% |       33351      7.85%    100.00%
system.ruby.L1Cache_Controller.IS.Exclusive_Data::total       425054                      
system.ruby.L1Cache_Controller.SS.Ack    |           8      7.69%      7.69% |           9      8.65%     16.35% |           9      8.65%     25.00% |           8      7.69%     32.69% |          10      9.62%     42.31% |           0      0.00%     42.31% |           0      0.00%     42.31% |          10      9.62%     51.92% |           6      5.77%     57.69% |          11     10.58%     68.27% |           3      2.88%     71.15% |           6      5.77%     76.92% |           6      5.77%     82.69% |           6      5.77%     88.46% |           4      3.85%     92.31% |           8      7.69%    100.00%
system.ruby.L1Cache_Controller.SS.Ack::total          104                      
system.ruby.L1Cache_Controller.SS.All_acks |           1      7.14%      7.14% |           1      7.14%     14.29% |           1      7.14%     21.43% |           1      7.14%     28.57% |           1      7.14%     35.71% |           0      0.00%     35.71% |           0      0.00%     35.71% |           1      7.14%     42.86% |           1      7.14%     50.00% |           1      7.14%     57.14% |           1      7.14%     64.29% |           1      7.14%     71.43% |           1      7.14%     78.57% |           1      7.14%     85.71% |           1      7.14%     92.86% |           1      7.14%    100.00%
system.ruby.L1Cache_Controller.SS.All_acks::total           14                      
system.ruby.L1Cache_Controller.MI.Load   |           6     11.32%     11.32% |          10     18.87%     30.19% |           2      3.77%     33.96% |           0      0.00%     33.96% |           1      1.89%     35.85% |           0      0.00%     35.85% |           0      0.00%     35.85% |          10     18.87%     54.72% |           5      9.43%     64.15% |           0      0.00%     64.15% |           0      0.00%     64.15% |           0      0.00%     64.15% |           8     15.09%     79.25% |           0      0.00%     79.25% |          10     18.87%     98.11% |           1      1.89%    100.00%
system.ruby.L1Cache_Controller.MI.Load::total           53                      
system.ruby.L1Cache_Controller.MI.Ifetch |           1    100.00%    100.00% |           0      0.00%    100.00% |           0      0.00%    100.00% |           0      0.00%    100.00% |           0      0.00%    100.00% |           0      0.00%    100.00% |           0      0.00%    100.00% |           0      0.00%    100.00% |           0      0.00%    100.00% |           0      0.00%    100.00% |           0      0.00%    100.00% |           0      0.00%    100.00% |           0      0.00%    100.00% |           0      0.00%    100.00% |           0      0.00%    100.00% |           0      0.00%    100.00%
system.ruby.L1Cache_Controller.MI.Ifetch::total            1                      
system.ruby.L1Cache_Controller.MI.Store  |           0      0.00%      0.00% |           3     17.65%     17.65% |           2     11.76%     29.41% |           0      0.00%     29.41% |           0      0.00%     29.41% |           0      0.00%     29.41% |           0      0.00%     29.41% |           9     52.94%     82.35% |           0      0.00%     82.35% |           0      0.00%     82.35% |           0      0.00%     82.35% |           0      0.00%     82.35% |           1      5.88%     88.24% |           0      0.00%     88.24% |           1      5.88%     94.12% |           1      5.88%    100.00%
system.ruby.L1Cache_Controller.MI.Store::total           17                      
system.ruby.L1Cache_Controller.MI.Writeback_Ack |        2946      2.16%      2.16% |       18801     13.81%     15.98% |        9700      7.13%     23.10% |        2978      2.19%     25.29% |         248      0.18%     25.47% |           0      0.00%     25.47% |           0      0.00%     25.47% |       18674     13.72%     39.19% |       26412     19.40%     58.60% |           1      0.00%     58.60% |          13      0.01%     58.61% |           9      0.01%     58.61% |       27534     20.23%     78.84% |         584      0.43%     79.27% |       18580     13.65%     92.92% |        9638      7.08%    100.00%
system.ruby.L1Cache_Controller.MI.Writeback_Ack::total       136118                      
system.ruby.L1Cache_Controller.MT.Complete_L2_to_L1 |        3827      6.78%      6.78% |        4454      7.89%     14.66% |        4270      7.56%     22.22% |        4362      7.72%     29.94% |        3643      6.45%     36.39% |           0      0.00%     36.39% |           0      0.00%     36.39% |        4306      7.62%     44.02% |        4581      8.11%     52.13% |        3577      6.33%     58.46% |        4506      7.98%     66.44% |        4465      7.90%     74.34% |        3570      6.32%     80.66% |        3654      6.47%     87.13% |        3587      6.35%     93.48% |        3682      6.52%    100.00%
system.ruby.L1Cache_Controller.MT.Complete_L2_to_L1::total        56484                      
system.ruby.L1Cache_Controller.MMT.Store |           0      0.00%      0.00% |           0      0.00%      0.00% |           1    100.00%    100.00% |           0      0.00%    100.00% |           0      0.00%    100.00% |           0      0.00%    100.00% |           0      0.00%    100.00% |           0      0.00%    100.00% |           0      0.00%    100.00% |           0      0.00%    100.00% |           0      0.00%    100.00% |           0      0.00%    100.00% |           0      0.00%    100.00% |           0      0.00%    100.00% |           0      0.00%    100.00% |           0      0.00%    100.00%
system.ruby.L1Cache_Controller.MMT.Store::total            1                      
system.ruby.L1Cache_Controller.MMT.Complete_L2_to_L1 |        2643      6.73%      6.73% |        2785      7.09%     13.83% |        3348      8.53%     22.36% |        2493      6.35%     28.71% |        2383      6.07%     34.78% |           0      0.00%     34.78% |           0      0.00%     34.78% |        2369      6.04%     40.81% |        6752     17.20%     58.01% |        1583      4.03%     62.05% |        1740      4.43%     66.48% |        1759      4.48%     70.96% |        3881      9.89%     80.85% |        2344      5.97%     86.82% |        2593      6.61%     93.42% |        2581      6.58%    100.00%
system.ruby.L1Cache_Controller.MMT.Complete_L2_to_L1::total        39254                      

---------- End Simulation Statistics   ----------
