
---------- Begin Simulation Statistics ----------
sim_seconds                                  0.015998                       # Number of seconds simulated
sim_ticks                                 15997702000                       # Number of ticks simulated
final_tick                                15997702000                       # Number of ticks from beginning of simulation (restored from checkpoints and never reset)
sim_freq                                 1000000000000                       # Frequency of simulated ticks
host_inst_rate                                  51956                       # Simulator instruction rate (inst/s)
host_op_rate                                    90107                       # Simulator op (including micro ops) rate (op/s)
host_tick_rate                               17752821                       # Simulator tick rate (ticks/s)
host_mem_usage                                2046280                       # Number of bytes of host memory used
host_seconds                                   901.14                       # Real time elapsed on the host
sim_insts                                    46818955                       # Number of instructions simulated
sim_ops                                      81198358                       # Number of ops (including micro ops) simulated
system.voltage_domain.voltage                       1                       # Voltage in Volts
system.clk_domain.clock                          1000                       # Clock period in ticks
system.mem_ctrls0.pwrStateResidencyTicks::UNDEFINED  15997702000                       # Cumulative time (in ticks) in various power states
system.mem_ctrls0.bytes_read::ruby.dir_cntrl0     11018944                       # Number of bytes read from this memory
system.mem_ctrls0.bytes_read::total          11018944                       # Number of bytes read from this memory
system.mem_ctrls0.bytes_written::ruby.dir_cntrl0      1557952                       # Number of bytes written to this memory
system.mem_ctrls0.bytes_written::total        1557952                       # Number of bytes written to this memory
system.mem_ctrls0.num_reads::ruby.dir_cntrl0       172171                       # Number of read requests responded to by this memory
system.mem_ctrls0.num_reads::total             172171                       # Number of read requests responded to by this memory
system.mem_ctrls0.num_writes::ruby.dir_cntrl0        24343                       # Number of write requests responded to by this memory
system.mem_ctrls0.num_writes::total             24343                       # Number of write requests responded to by this memory
system.mem_ctrls0.bw_read::ruby.dir_cntrl0    688782926                       # Total read bandwidth from this memory (bytes/s)
system.mem_ctrls0.bw_read::total            688782926                       # Total read bandwidth from this memory (bytes/s)
system.mem_ctrls0.bw_write::ruby.dir_cntrl0     97385987                       # Write bandwidth from this memory (bytes/s)
system.mem_ctrls0.bw_write::total            97385987                       # Write bandwidth from this memory (bytes/s)
system.mem_ctrls0.bw_total::ruby.dir_cntrl0    786168914                       # Total bandwidth to/from this memory (bytes/s)
system.mem_ctrls0.bw_total::total           786168914                       # Total bandwidth to/from this memory (bytes/s)
system.mem_ctrls0.readReqs                     172171                       # Number of read requests accepted
system.mem_ctrls0.avgNetLat                      0.00                       # Average network latency to DRAM controller
system.mem_ctrls0.writeReqs                     24343                       # Number of write requests accepted
system.mem_ctrls0.readBursts                   172171                       # Number of DRAM read bursts, including those serviced by the write queue
system.mem_ctrls0.writeBursts                   24343                       # Number of DRAM write bursts, including those merged in the write queue
system.mem_ctrls0.bytesReadDRAM              11018304                       # Total number of bytes read from DRAM
system.mem_ctrls0.bytesReadWrQ                    640                       # Total number of bytes read from write queue
system.mem_ctrls0.bytesWritten                1556736                       # Total number of bytes written to DRAM
system.mem_ctrls0.bytesReadSys               11018944                       # Total read bytes from the system interface side
system.mem_ctrls0.bytesWrittenSys             1557952                       # Total written bytes from the system interface side
system.mem_ctrls0.servicedByWrQ                    10                       # Number of DRAM read bursts serviced by the write queue
system.mem_ctrls0.mergedWrBursts                    0                       # Number of DRAM write bursts merged with an existing one
system.mem_ctrls0.neitherReadNorWriteReqs            0                       # Number of requests that are neither read nor write
system.mem_ctrls0.perBankRdBursts::0            10841                       # Per bank write bursts
system.mem_ctrls0.perBankRdBursts::1            10719                       # Per bank write bursts
system.mem_ctrls0.perBankRdBursts::2            10555                       # Per bank write bursts
system.mem_ctrls0.perBankRdBursts::3            10707                       # Per bank write bursts
system.mem_ctrls0.perBankRdBursts::4            10136                       # Per bank write bursts
system.mem_ctrls0.perBankRdBursts::5            10128                       # Per bank write bursts
system.mem_ctrls0.perBankRdBursts::6            10117                       # Per bank write bursts
system.mem_ctrls0.perBankRdBursts::7            10287                       # Per bank write bursts
system.mem_ctrls0.perBankRdBursts::8            10270                       # Per bank write bursts
system.mem_ctrls0.perBankRdBursts::9            10820                       # Per bank write bursts
system.mem_ctrls0.perBankRdBursts::10           11237                       # Per bank write bursts
system.mem_ctrls0.perBankRdBursts::11           11079                       # Per bank write bursts
system.mem_ctrls0.perBankRdBursts::12           11774                       # Per bank write bursts
system.mem_ctrls0.perBankRdBursts::13           11692                       # Per bank write bursts
system.mem_ctrls0.perBankRdBursts::14           10888                       # Per bank write bursts
system.mem_ctrls0.perBankRdBursts::15           10911                       # Per bank write bursts
system.mem_ctrls0.perBankWrBursts::0             1496                       # Per bank write bursts
system.mem_ctrls0.perBankWrBursts::1             1454                       # Per bank write bursts
system.mem_ctrls0.perBankWrBursts::2             1475                       # Per bank write bursts
system.mem_ctrls0.perBankWrBursts::3             1576                       # Per bank write bursts
system.mem_ctrls0.perBankWrBursts::4             1319                       # Per bank write bursts
system.mem_ctrls0.perBankWrBursts::5             1368                       # Per bank write bursts
system.mem_ctrls0.perBankWrBursts::6             1300                       # Per bank write bursts
system.mem_ctrls0.perBankWrBursts::7             1353                       # Per bank write bursts
system.mem_ctrls0.perBankWrBursts::8             1349                       # Per bank write bursts
system.mem_ctrls0.perBankWrBursts::9             1464                       # Per bank write bursts
system.mem_ctrls0.perBankWrBursts::10            1641                       # Per bank write bursts
system.mem_ctrls0.perBankWrBursts::11            1619                       # Per bank write bursts
system.mem_ctrls0.perBankWrBursts::12            1853                       # Per bank write bursts
system.mem_ctrls0.perBankWrBursts::13            1873                       # Per bank write bursts
system.mem_ctrls0.perBankWrBursts::14            1573                       # Per bank write bursts
system.mem_ctrls0.perBankWrBursts::15            1611                       # Per bank write bursts
system.mem_ctrls0.numRdRetry                        0                       # Number of times read queue was full causing retry
system.mem_ctrls0.numWrRetry                        0                       # Number of times write queue was full causing retry
system.mem_ctrls0.totGap                  15996627000                       # Total gap between requests
system.mem_ctrls0.readPktSize::0                    0                       # Read request sizes (log2)
system.mem_ctrls0.readPktSize::1                    0                       # Read request sizes (log2)
system.mem_ctrls0.readPktSize::2                    0                       # Read request sizes (log2)
system.mem_ctrls0.readPktSize::3                    0                       # Read request sizes (log2)
system.mem_ctrls0.readPktSize::4                    0                       # Read request sizes (log2)
system.mem_ctrls0.readPktSize::5                    0                       # Read request sizes (log2)
system.mem_ctrls0.readPktSize::6               172171                       # Read request sizes (log2)
system.mem_ctrls0.writePktSize::0                   0                       # Write request sizes (log2)
system.mem_ctrls0.writePktSize::1                   0                       # Write request sizes (log2)
system.mem_ctrls0.writePktSize::2                   0                       # Write request sizes (log2)
system.mem_ctrls0.writePktSize::3                   0                       # Write request sizes (log2)
system.mem_ctrls0.writePktSize::4                   0                       # Write request sizes (log2)
system.mem_ctrls0.writePktSize::5                   0                       # Write request sizes (log2)
system.mem_ctrls0.writePktSize::6               24343                       # Write request sizes (log2)
system.mem_ctrls0.rdQLenPdf::0                  83449                       # What read queue length does an incoming req see
system.mem_ctrls0.rdQLenPdf::1                  45499                       # What read queue length does an incoming req see
system.mem_ctrls0.rdQLenPdf::2                  23278                       # What read queue length does an incoming req see
system.mem_ctrls0.rdQLenPdf::3                  11346                       # What read queue length does an incoming req see
system.mem_ctrls0.rdQLenPdf::4                   5265                       # What read queue length does an incoming req see
system.mem_ctrls0.rdQLenPdf::5                   2216                       # What read queue length does an incoming req see
system.mem_ctrls0.rdQLenPdf::6                    793                       # What read queue length does an incoming req see
system.mem_ctrls0.rdQLenPdf::7                    228                       # What read queue length does an incoming req see
system.mem_ctrls0.rdQLenPdf::8                     60                       # What read queue length does an incoming req see
system.mem_ctrls0.rdQLenPdf::9                     21                       # What read queue length does an incoming req see
system.mem_ctrls0.rdQLenPdf::10                     3                       # What read queue length does an incoming req see
system.mem_ctrls0.rdQLenPdf::11                     2                       # What read queue length does an incoming req see
system.mem_ctrls0.rdQLenPdf::12                     1                       # What read queue length does an incoming req see
system.mem_ctrls0.rdQLenPdf::13                     0                       # What read queue length does an incoming req see
system.mem_ctrls0.rdQLenPdf::14                     0                       # What read queue length does an incoming req see
system.mem_ctrls0.rdQLenPdf::15                     0                       # What read queue length does an incoming req see
system.mem_ctrls0.rdQLenPdf::16                     0                       # What read queue length does an incoming req see
system.mem_ctrls0.rdQLenPdf::17                     0                       # What read queue length does an incoming req see
system.mem_ctrls0.rdQLenPdf::18                     0                       # What read queue length does an incoming req see
system.mem_ctrls0.rdQLenPdf::19                     0                       # What read queue length does an incoming req see
system.mem_ctrls0.rdQLenPdf::20                     0                       # What read queue length does an incoming req see
system.mem_ctrls0.rdQLenPdf::21                     0                       # What read queue length does an incoming req see
system.mem_ctrls0.rdQLenPdf::22                     0                       # What read queue length does an incoming req see
system.mem_ctrls0.rdQLenPdf::23                     0                       # What read queue length does an incoming req see
system.mem_ctrls0.rdQLenPdf::24                     0                       # What read queue length does an incoming req see
system.mem_ctrls0.rdQLenPdf::25                     0                       # What read queue length does an incoming req see
system.mem_ctrls0.rdQLenPdf::26                     0                       # What read queue length does an incoming req see
system.mem_ctrls0.rdQLenPdf::27                     0                       # What read queue length does an incoming req see
system.mem_ctrls0.rdQLenPdf::28                     0                       # What read queue length does an incoming req see
system.mem_ctrls0.rdQLenPdf::29                     0                       # What read queue length does an incoming req see
system.mem_ctrls0.rdQLenPdf::30                     0                       # What read queue length does an incoming req see
system.mem_ctrls0.rdQLenPdf::31                     0                       # What read queue length does an incoming req see
system.mem_ctrls0.wrQLenPdf::0                      1                       # What write queue length does an incoming req see
system.mem_ctrls0.wrQLenPdf::1                      1                       # What write queue length does an incoming req see
system.mem_ctrls0.wrQLenPdf::2                      1                       # What write queue length does an incoming req see
system.mem_ctrls0.wrQLenPdf::3                      1                       # What write queue length does an incoming req see
system.mem_ctrls0.wrQLenPdf::4                      1                       # What write queue length does an incoming req see
system.mem_ctrls0.wrQLenPdf::5                      1                       # What write queue length does an incoming req see
system.mem_ctrls0.wrQLenPdf::6                      1                       # What write queue length does an incoming req see
system.mem_ctrls0.wrQLenPdf::7                      1                       # What write queue length does an incoming req see
system.mem_ctrls0.wrQLenPdf::8                      1                       # What write queue length does an incoming req see
system.mem_ctrls0.wrQLenPdf::9                      1                       # What write queue length does an incoming req see
system.mem_ctrls0.wrQLenPdf::10                     1                       # What write queue length does an incoming req see
system.mem_ctrls0.wrQLenPdf::11                     1                       # What write queue length does an incoming req see
system.mem_ctrls0.wrQLenPdf::12                     1                       # What write queue length does an incoming req see
system.mem_ctrls0.wrQLenPdf::13                     1                       # What write queue length does an incoming req see
system.mem_ctrls0.wrQLenPdf::14                     1                       # What write queue length does an incoming req see
system.mem_ctrls0.wrQLenPdf::15                   271                       # What write queue length does an incoming req see
system.mem_ctrls0.wrQLenPdf::16                   341                       # What write queue length does an incoming req see
system.mem_ctrls0.wrQLenPdf::17                   825                       # What write queue length does an incoming req see
system.mem_ctrls0.wrQLenPdf::18                  1362                       # What write queue length does an incoming req see
system.mem_ctrls0.wrQLenPdf::19                  1522                       # What write queue length does an incoming req see
system.mem_ctrls0.wrQLenPdf::20                  1548                       # What write queue length does an incoming req see
system.mem_ctrls0.wrQLenPdf::21                  1559                       # What write queue length does an incoming req see
system.mem_ctrls0.wrQLenPdf::22                  1535                       # What write queue length does an incoming req see
system.mem_ctrls0.wrQLenPdf::23                  1524                       # What write queue length does an incoming req see
system.mem_ctrls0.wrQLenPdf::24                  1527                       # What write queue length does an incoming req see
system.mem_ctrls0.wrQLenPdf::25                  1548                       # What write queue length does an incoming req see
system.mem_ctrls0.wrQLenPdf::26                  1551                       # What write queue length does an incoming req see
system.mem_ctrls0.wrQLenPdf::27                  1537                       # What write queue length does an incoming req see
system.mem_ctrls0.wrQLenPdf::28                  1527                       # What write queue length does an incoming req see
system.mem_ctrls0.wrQLenPdf::29                  1518                       # What write queue length does an incoming req see
system.mem_ctrls0.wrQLenPdf::30                  1531                       # What write queue length does an incoming req see
system.mem_ctrls0.wrQLenPdf::31                  1519                       # What write queue length does an incoming req see
system.mem_ctrls0.wrQLenPdf::32                  1533                       # What write queue length does an incoming req see
system.mem_ctrls0.wrQLenPdf::33                    39                       # What write queue length does an incoming req see
system.mem_ctrls0.wrQLenPdf::34                     7                       # What write queue length does an incoming req see
system.mem_ctrls0.wrQLenPdf::35                     3                       # What write queue length does an incoming req see
system.mem_ctrls0.wrQLenPdf::36                     1                       # What write queue length does an incoming req see
system.mem_ctrls0.wrQLenPdf::37                     0                       # What write queue length does an incoming req see
system.mem_ctrls0.wrQLenPdf::38                     0                       # What write queue length does an incoming req see
system.mem_ctrls0.wrQLenPdf::39                     0                       # What write queue length does an incoming req see
system.mem_ctrls0.wrQLenPdf::40                     0                       # What write queue length does an incoming req see
system.mem_ctrls0.wrQLenPdf::41                     0                       # What write queue length does an incoming req see
system.mem_ctrls0.wrQLenPdf::42                     0                       # What write queue length does an incoming req see
system.mem_ctrls0.wrQLenPdf::43                     0                       # What write queue length does an incoming req see
system.mem_ctrls0.wrQLenPdf::44                     0                       # What write queue length does an incoming req see
system.mem_ctrls0.wrQLenPdf::45                     0                       # What write queue length does an incoming req see
system.mem_ctrls0.wrQLenPdf::46                     0                       # What write queue length does an incoming req see
system.mem_ctrls0.wrQLenPdf::47                     0                       # What write queue length does an incoming req see
system.mem_ctrls0.wrQLenPdf::48                     0                       # What write queue length does an incoming req see
system.mem_ctrls0.wrQLenPdf::49                     0                       # What write queue length does an incoming req see
system.mem_ctrls0.wrQLenPdf::50                     0                       # What write queue length does an incoming req see
system.mem_ctrls0.wrQLenPdf::51                     0                       # What write queue length does an incoming req see
system.mem_ctrls0.wrQLenPdf::52                     0                       # What write queue length does an incoming req see
system.mem_ctrls0.wrQLenPdf::53                     0                       # What write queue length does an incoming req see
system.mem_ctrls0.wrQLenPdf::54                     0                       # What write queue length does an incoming req see
system.mem_ctrls0.wrQLenPdf::55                     0                       # What write queue length does an incoming req see
system.mem_ctrls0.wrQLenPdf::56                     0                       # What write queue length does an incoming req see
system.mem_ctrls0.wrQLenPdf::57                     0                       # What write queue length does an incoming req see
system.mem_ctrls0.wrQLenPdf::58                     0                       # What write queue length does an incoming req see
system.mem_ctrls0.wrQLenPdf::59                     0                       # What write queue length does an incoming req see
system.mem_ctrls0.wrQLenPdf::60                     0                       # What write queue length does an incoming req see
system.mem_ctrls0.wrQLenPdf::61                     0                       # What write queue length does an incoming req see
system.mem_ctrls0.wrQLenPdf::62                     0                       # What write queue length does an incoming req see
system.mem_ctrls0.wrQLenPdf::63                     0                       # What write queue length does an incoming req see
system.mem_ctrls0.bytesPerActivate::samples       110123                       # Bytes accessed per row activation
system.mem_ctrls0.bytesPerActivate::mean   114.183304                       # Bytes accessed per row activation
system.mem_ctrls0.bytesPerActivate::gmean    89.363217                       # Bytes accessed per row activation
system.mem_ctrls0.bytesPerActivate::stdev   115.757907                       # Bytes accessed per row activation
system.mem_ctrls0.bytesPerActivate::0-127        77328     70.22%     70.22% # Bytes accessed per row activation
system.mem_ctrls0.bytesPerActivate::128-255        21077     19.14%     89.36% # Bytes accessed per row activation
system.mem_ctrls0.bytesPerActivate::256-383         5403      4.91%     94.27% # Bytes accessed per row activation
system.mem_ctrls0.bytesPerActivate::384-511         3215      2.92%     97.18% # Bytes accessed per row activation
system.mem_ctrls0.bytesPerActivate::512-639         1643      1.49%     98.68% # Bytes accessed per row activation
system.mem_ctrls0.bytesPerActivate::640-767         1120      1.02%     99.69% # Bytes accessed per row activation
system.mem_ctrls0.bytesPerActivate::768-895          113      0.10%     99.80% # Bytes accessed per row activation
system.mem_ctrls0.bytesPerActivate::896-1023          104      0.09%     99.89% # Bytes accessed per row activation
system.mem_ctrls0.bytesPerActivate::1024-1151          120      0.11%    100.00% # Bytes accessed per row activation
system.mem_ctrls0.bytesPerActivate::total       110123                       # Bytes accessed per row activation
system.mem_ctrls0.rdPerTurnAround::samples         1480                       # Reads before turning the bus around for writes
system.mem_ctrls0.rdPerTurnAround::mean    116.322297                       # Reads before turning the bus around for writes
system.mem_ctrls0.rdPerTurnAround::gmean    45.815024                       # Reads before turning the bus around for writes
system.mem_ctrls0.rdPerTurnAround::stdev  1776.719060                       # Reads before turning the bus around for writes
system.mem_ctrls0.rdPerTurnAround::0-4095         1479     99.93%     99.93% # Reads before turning the bus around for writes
system.mem_ctrls0.rdPerTurnAround::65536-69631            1      0.07%    100.00% # Reads before turning the bus around for writes
system.mem_ctrls0.rdPerTurnAround::total         1480                       # Reads before turning the bus around for writes
system.mem_ctrls0.wrPerTurnAround::samples         1480                       # Writes before turning the bus around for reads
system.mem_ctrls0.wrPerTurnAround::mean     16.435135                       # Writes before turning the bus around for reads
system.mem_ctrls0.wrPerTurnAround::gmean    16.414785                       # Writes before turning the bus around for reads
system.mem_ctrls0.wrPerTurnAround::stdev     0.840077                       # Writes before turning the bus around for reads
system.mem_ctrls0.wrPerTurnAround::16            1148     77.57%     77.57% # Writes before turning the bus around for reads
system.mem_ctrls0.wrPerTurnAround::17              38      2.57%     80.14% # Writes before turning the bus around for reads
system.mem_ctrls0.wrPerTurnAround::18             282     19.05%     99.19% # Writes before turning the bus around for reads
system.mem_ctrls0.wrPerTurnAround::19               9      0.61%     99.80% # Writes before turning the bus around for reads
system.mem_ctrls0.wrPerTurnAround::20               1      0.07%     99.86% # Writes before turning the bus around for reads
system.mem_ctrls0.wrPerTurnAround::21               1      0.07%     99.93% # Writes before turning the bus around for reads
system.mem_ctrls0.wrPerTurnAround::22               1      0.07%    100.00% # Writes before turning the bus around for reads
system.mem_ctrls0.wrPerTurnAround::total         1480                       # Writes before turning the bus around for reads
system.mem_ctrls0.totQLat                  4943206750                       # Total ticks spent queuing
system.mem_ctrls0.totMemAccLat             8171225500                       # Total ticks spent from burst creation until serviced by the DRAM
system.mem_ctrls0.totBusLat                 860805000                       # Total ticks spent in databus transfers
system.mem_ctrls0.avgQLat                    28712.70                       # Average queueing delay per DRAM burst
system.mem_ctrls0.avgBusLat                   5000.00                       # Average bus latency per DRAM burst
system.mem_ctrls0.avgMemAccLat               47462.70                       # Average memory access latency per DRAM burst
system.mem_ctrls0.avgRdBW                      688.74                       # Average DRAM read bandwidth in MiByte/s
system.mem_ctrls0.avgWrBW                       97.31                       # Average achieved write bandwidth in MiByte/s
system.mem_ctrls0.avgRdBWSys                   688.78                       # Average system read bandwidth in MiByte/s
system.mem_ctrls0.avgWrBWSys                    97.39                       # Average system write bandwidth in MiByte/s
system.mem_ctrls0.peakBW                     12800.00                       # Theoretical peak bandwidth in MiByte/s
system.mem_ctrls0.busUtil                        6.14                       # Data bus utilization in percentage
system.mem_ctrls0.busUtilRead                    5.38                       # Data bus utilization in percentage for reads
system.mem_ctrls0.busUtilWrite                   0.76                       # Data bus utilization in percentage for writes
system.mem_ctrls0.avgRdQLen                      1.61                       # Average read queue length when enqueuing
system.mem_ctrls0.avgWrQLen                     12.90                       # Average write queue length when enqueuing
system.mem_ctrls0.readRowHits                   82165                       # Number of row buffer hits during reads
system.mem_ctrls0.writeRowHits                   4186                       # Number of row buffer hits during writes
system.mem_ctrls0.readRowHitRate                47.73                       # Row buffer hit rate for reads
system.mem_ctrls0.writeRowHitRate               17.20                       # Row buffer hit rate for writes
system.mem_ctrls0.avgGap                     81401.97                       # Average gap between requests
system.mem_ctrls0.pageHitRate                   43.94                       # Row buffer hit rate, read and write combined
system.mem_ctrls0_0.actEnergy               375342660                       # Energy for activate commands per rank (pJ)
system.mem_ctrls0_0.preEnergy               199476585                       # Energy for precharge commands per rank (pJ)
system.mem_ctrls0_0.readEnergy              596118600                       # Energy for read commands per rank (pJ)
system.mem_ctrls0_0.writeEnergy              59200020                       # Energy for write commands per rank (pJ)
system.mem_ctrls0_0.refreshEnergy        1244646000.000000                       # Energy for refresh commands per rank (pJ)
system.mem_ctrls0_0.actBackEnergy          1556054400                       # Energy for active background per rank (pJ)
system.mem_ctrls0_0.preBackEnergy            33144480                       # Energy for precharge background per rank (pJ)
system.mem_ctrls0_0.actPowerDownEnergy     5143497030                       # Energy for active power-down per rank (pJ)
system.mem_ctrls0_0.prePowerDownEnergy      293464800                       # Energy for precharge power-down per rank (pJ)
system.mem_ctrls0_0.selfRefreshEnergy       126909780                       # Energy for self refresh per rank (pJ)
system.mem_ctrls0_0.totalEnergy            9627854355                       # Total energy per rank (pJ)
system.mem_ctrls0_0.averagePower           601.827316                       # Core power per rank (mW)
system.mem_ctrls0_0.totalIdleTime         12499212750                       # Total Idle time Per DRAM Rank
system.mem_ctrls0_0.memoryStateTime::IDLE     19348000                       # Time in different power states
system.mem_ctrls0_0.memoryStateTime::REF    526722000                       # Time in different power states
system.mem_ctrls0_0.memoryStateTime::SREF    455158000                       # Time in different power states
system.mem_ctrls0_0.memoryStateTime::PRE_PDN    764307250                       # Time in different power states
system.mem_ctrls0_0.memoryStateTime::ACT   2952419250                       # Time in different power states
system.mem_ctrls0_0.memoryStateTime::ACT_PDN  11279747500                       # Time in different power states
system.mem_ctrls0_1.actEnergy               411014100                       # Energy for activate commands per rank (pJ)
system.mem_ctrls0_1.preEnergy               218440200                       # Energy for precharge commands per rank (pJ)
system.mem_ctrls0_1.readEnergy              633110940                       # Energy for read commands per rank (pJ)
system.mem_ctrls0_1.writeEnergy              67771260                       # Energy for write commands per rank (pJ)
system.mem_ctrls0_1.refreshEnergy        1246489920.000000                       # Energy for refresh commands per rank (pJ)
system.mem_ctrls0_1.actBackEnergy          1623530430                       # Energy for active background per rank (pJ)
system.mem_ctrls0_1.preBackEnergy            32553120                       # Energy for precharge background per rank (pJ)
system.mem_ctrls0_1.actPowerDownEnergy     5244878370                       # Energy for active power-down per rank (pJ)
system.mem_ctrls0_1.prePowerDownEnergy      209256480                       # Energy for precharge power-down per rank (pJ)
system.mem_ctrls0_1.selfRefreshEnergy        81155370                       # Energy for self refresh per rank (pJ)
system.mem_ctrls0_1.totalEnergy            9768382890                       # Total energy per rank (pJ)
system.mem_ctrls0_1.averagePower           610.611611                       # Core power per rank (mW)
system.mem_ctrls0_1.totalIdleTime         12351902500                       # Total Idle time Per DRAM Rank
system.mem_ctrls0_1.memoryStateTime::IDLE     14318500                       # Time in different power states
system.mem_ctrls0_1.memoryStateTime::REF    527394000                       # Time in different power states
system.mem_ctrls0_1.memoryStateTime::SREF    305286000                       # Time in different power states
system.mem_ctrls0_1.memoryStateTime::PRE_PDN    544729250                       # Time in different power states
system.mem_ctrls0_1.memoryStateTime::ACT   3103130750                       # Time in different power states
system.mem_ctrls0_1.memoryStateTime::ACT_PDN  11502843500                       # Time in different power states
system.mem_ctrls1.pwrStateResidencyTicks::UNDEFINED  15997702000                       # Cumulative time (in ticks) in various power states
system.mem_ctrls1.bytes_read::ruby.dir_cntrl1     10989120                       # Number of bytes read from this memory
system.mem_ctrls1.bytes_read::total          10989120                       # Number of bytes read from this memory
system.mem_ctrls1.bytes_written::ruby.dir_cntrl1      1553792                       # Number of bytes written to this memory
system.mem_ctrls1.bytes_written::total        1553792                       # Number of bytes written to this memory
system.mem_ctrls1.num_reads::ruby.dir_cntrl1       171705                       # Number of read requests responded to by this memory
system.mem_ctrls1.num_reads::total             171705                       # Number of read requests responded to by this memory
system.mem_ctrls1.num_writes::ruby.dir_cntrl1        24278                       # Number of write requests responded to by this memory
system.mem_ctrls1.num_writes::total             24278                       # Number of write requests responded to by this memory
system.mem_ctrls1.bw_read::ruby.dir_cntrl1    686918659                       # Total read bandwidth from this memory (bytes/s)
system.mem_ctrls1.bw_read::total            686918659                       # Total read bandwidth from this memory (bytes/s)
system.mem_ctrls1.bw_write::ruby.dir_cntrl1     97125950                       # Write bandwidth from this memory (bytes/s)
system.mem_ctrls1.bw_write::total            97125950                       # Write bandwidth from this memory (bytes/s)
system.mem_ctrls1.bw_total::ruby.dir_cntrl1    784044608                       # Total bandwidth to/from this memory (bytes/s)
system.mem_ctrls1.bw_total::total           784044608                       # Total bandwidth to/from this memory (bytes/s)
system.mem_ctrls1.readReqs                     171705                       # Number of read requests accepted
system.mem_ctrls1.avgNetLat                      0.00                       # Average network latency to DRAM controller
system.mem_ctrls1.writeReqs                     24278                       # Number of write requests accepted
system.mem_ctrls1.readBursts                   171705                       # Number of DRAM read bursts, including those serviced by the write queue
system.mem_ctrls1.writeBursts                   24278                       # Number of DRAM write bursts, including those merged in the write queue
system.mem_ctrls1.bytesReadDRAM              10988608                       # Total number of bytes read from DRAM
system.mem_ctrls1.bytesReadWrQ                    512                       # Total number of bytes read from write queue
system.mem_ctrls1.bytesWritten                1551872                       # Total number of bytes written to DRAM
system.mem_ctrls1.bytesReadSys               10989120                       # Total read bytes from the system interface side
system.mem_ctrls1.bytesWrittenSys             1553792                       # Total written bytes from the system interface side
system.mem_ctrls1.servicedByWrQ                     8                       # Number of DRAM read bursts serviced by the write queue
system.mem_ctrls1.mergedWrBursts                    0                       # Number of DRAM write bursts merged with an existing one
system.mem_ctrls1.neitherReadNorWriteReqs            0                       # Number of requests that are neither read nor write
system.mem_ctrls1.perBankRdBursts::0            10722                       # Per bank write bursts
system.mem_ctrls1.perBankRdBursts::1            10655                       # Per bank write bursts
system.mem_ctrls1.perBankRdBursts::2            10519                       # Per bank write bursts
system.mem_ctrls1.perBankRdBursts::3            10676                       # Per bank write bursts
system.mem_ctrls1.perBankRdBursts::4            10100                       # Per bank write bursts
system.mem_ctrls1.perBankRdBursts::5            10110                       # Per bank write bursts
system.mem_ctrls1.perBankRdBursts::6            10096                       # Per bank write bursts
system.mem_ctrls1.perBankRdBursts::7            10269                       # Per bank write bursts
system.mem_ctrls1.perBankRdBursts::8            10266                       # Per bank write bursts
system.mem_ctrls1.perBankRdBursts::9            10762                       # Per bank write bursts
system.mem_ctrls1.perBankRdBursts::10           11228                       # Per bank write bursts
system.mem_ctrls1.perBankRdBursts::11           11104                       # Per bank write bursts
system.mem_ctrls1.perBankRdBursts::12           11725                       # Per bank write bursts
system.mem_ctrls1.perBankRdBursts::13           11660                       # Per bank write bursts
system.mem_ctrls1.perBankRdBursts::14           10880                       # Per bank write bursts
system.mem_ctrls1.perBankRdBursts::15           10925                       # Per bank write bursts
system.mem_ctrls1.perBankWrBursts::0             1478                       # Per bank write bursts
system.mem_ctrls1.perBankWrBursts::1             1434                       # Per bank write bursts
system.mem_ctrls1.perBankWrBursts::2             1473                       # Per bank write bursts
system.mem_ctrls1.perBankWrBursts::3             1562                       # Per bank write bursts
system.mem_ctrls1.perBankWrBursts::4             1331                       # Per bank write bursts
system.mem_ctrls1.perBankWrBursts::5             1343                       # Per bank write bursts
system.mem_ctrls1.perBankWrBursts::6             1279                       # Per bank write bursts
system.mem_ctrls1.perBankWrBursts::7             1357                       # Per bank write bursts
system.mem_ctrls1.perBankWrBursts::8             1345                       # Per bank write bursts
system.mem_ctrls1.perBankWrBursts::9             1442                       # Per bank write bursts
system.mem_ctrls1.perBankWrBursts::10            1614                       # Per bank write bursts
system.mem_ctrls1.perBankWrBursts::11            1653                       # Per bank write bursts
system.mem_ctrls1.perBankWrBursts::12            1858                       # Per bank write bursts
system.mem_ctrls1.perBankWrBursts::13            1855                       # Per bank write bursts
system.mem_ctrls1.perBankWrBursts::14            1598                       # Per bank write bursts
system.mem_ctrls1.perBankWrBursts::15            1626                       # Per bank write bursts
system.mem_ctrls1.numRdRetry                        0                       # Number of times read queue was full causing retry
system.mem_ctrls1.numWrRetry                        0                       # Number of times write queue was full causing retry
system.mem_ctrls1.totGap                  15997105500                       # Total gap between requests
system.mem_ctrls1.readPktSize::0                    0                       # Read request sizes (log2)
system.mem_ctrls1.readPktSize::1                    0                       # Read request sizes (log2)
system.mem_ctrls1.readPktSize::2                    0                       # Read request sizes (log2)
system.mem_ctrls1.readPktSize::3                    0                       # Read request sizes (log2)
system.mem_ctrls1.readPktSize::4                    0                       # Read request sizes (log2)
system.mem_ctrls1.readPktSize::5                    0                       # Read request sizes (log2)
system.mem_ctrls1.readPktSize::6               171705                       # Read request sizes (log2)
system.mem_ctrls1.writePktSize::0                   0                       # Write request sizes (log2)
system.mem_ctrls1.writePktSize::1                   0                       # Write request sizes (log2)
system.mem_ctrls1.writePktSize::2                   0                       # Write request sizes (log2)
system.mem_ctrls1.writePktSize::3                   0                       # Write request sizes (log2)
system.mem_ctrls1.writePktSize::4                   0                       # Write request sizes (log2)
system.mem_ctrls1.writePktSize::5                   0                       # Write request sizes (log2)
system.mem_ctrls1.writePktSize::6               24278                       # Write request sizes (log2)
system.mem_ctrls1.rdQLenPdf::0                  83266                       # What read queue length does an incoming req see
system.mem_ctrls1.rdQLenPdf::1                  45412                       # What read queue length does an incoming req see
system.mem_ctrls1.rdQLenPdf::2                  22966                       # What read queue length does an incoming req see
system.mem_ctrls1.rdQLenPdf::3                  11450                       # What read queue length does an incoming req see
system.mem_ctrls1.rdQLenPdf::4                   5367                       # What read queue length does an incoming req see
system.mem_ctrls1.rdQLenPdf::5                   2159                       # What read queue length does an incoming req see
system.mem_ctrls1.rdQLenPdf::6                    760                       # What read queue length does an incoming req see
system.mem_ctrls1.rdQLenPdf::7                    232                       # What read queue length does an incoming req see
system.mem_ctrls1.rdQLenPdf::8                     68                       # What read queue length does an incoming req see
system.mem_ctrls1.rdQLenPdf::9                     14                       # What read queue length does an incoming req see
system.mem_ctrls1.rdQLenPdf::10                     3                       # What read queue length does an incoming req see
system.mem_ctrls1.rdQLenPdf::11                     0                       # What read queue length does an incoming req see
system.mem_ctrls1.rdQLenPdf::12                     0                       # What read queue length does an incoming req see
system.mem_ctrls1.rdQLenPdf::13                     0                       # What read queue length does an incoming req see
system.mem_ctrls1.rdQLenPdf::14                     0                       # What read queue length does an incoming req see
system.mem_ctrls1.rdQLenPdf::15                     0                       # What read queue length does an incoming req see
system.mem_ctrls1.rdQLenPdf::16                     0                       # What read queue length does an incoming req see
system.mem_ctrls1.rdQLenPdf::17                     0                       # What read queue length does an incoming req see
system.mem_ctrls1.rdQLenPdf::18                     0                       # What read queue length does an incoming req see
system.mem_ctrls1.rdQLenPdf::19                     0                       # What read queue length does an incoming req see
system.mem_ctrls1.rdQLenPdf::20                     0                       # What read queue length does an incoming req see
system.mem_ctrls1.rdQLenPdf::21                     0                       # What read queue length does an incoming req see
system.mem_ctrls1.rdQLenPdf::22                     0                       # What read queue length does an incoming req see
system.mem_ctrls1.rdQLenPdf::23                     0                       # What read queue length does an incoming req see
system.mem_ctrls1.rdQLenPdf::24                     0                       # What read queue length does an incoming req see
system.mem_ctrls1.rdQLenPdf::25                     0                       # What read queue length does an incoming req see
system.mem_ctrls1.rdQLenPdf::26                     0                       # What read queue length does an incoming req see
system.mem_ctrls1.rdQLenPdf::27                     0                       # What read queue length does an incoming req see
system.mem_ctrls1.rdQLenPdf::28                     0                       # What read queue length does an incoming req see
system.mem_ctrls1.rdQLenPdf::29                     0                       # What read queue length does an incoming req see
system.mem_ctrls1.rdQLenPdf::30                     0                       # What read queue length does an incoming req see
system.mem_ctrls1.rdQLenPdf::31                     0                       # What read queue length does an incoming req see
system.mem_ctrls1.wrQLenPdf::0                      1                       # What write queue length does an incoming req see
system.mem_ctrls1.wrQLenPdf::1                      1                       # What write queue length does an incoming req see
system.mem_ctrls1.wrQLenPdf::2                      1                       # What write queue length does an incoming req see
system.mem_ctrls1.wrQLenPdf::3                      1                       # What write queue length does an incoming req see
system.mem_ctrls1.wrQLenPdf::4                      1                       # What write queue length does an incoming req see
system.mem_ctrls1.wrQLenPdf::5                      1                       # What write queue length does an incoming req see
system.mem_ctrls1.wrQLenPdf::6                      1                       # What write queue length does an incoming req see
system.mem_ctrls1.wrQLenPdf::7                      1                       # What write queue length does an incoming req see
system.mem_ctrls1.wrQLenPdf::8                      1                       # What write queue length does an incoming req see
system.mem_ctrls1.wrQLenPdf::9                      1                       # What write queue length does an incoming req see
system.mem_ctrls1.wrQLenPdf::10                     1                       # What write queue length does an incoming req see
system.mem_ctrls1.wrQLenPdf::11                     1                       # What write queue length does an incoming req see
system.mem_ctrls1.wrQLenPdf::12                     1                       # What write queue length does an incoming req see
system.mem_ctrls1.wrQLenPdf::13                     1                       # What write queue length does an incoming req see
system.mem_ctrls1.wrQLenPdf::14                     1                       # What write queue length does an incoming req see
system.mem_ctrls1.wrQLenPdf::15                   262                       # What write queue length does an incoming req see
system.mem_ctrls1.wrQLenPdf::16                   327                       # What write queue length does an incoming req see
system.mem_ctrls1.wrQLenPdf::17                   828                       # What write queue length does an incoming req see
system.mem_ctrls1.wrQLenPdf::18                  1343                       # What write queue length does an incoming req see
system.mem_ctrls1.wrQLenPdf::19                  1499                       # What write queue length does an incoming req see
system.mem_ctrls1.wrQLenPdf::20                  1546                       # What write queue length does an incoming req see
system.mem_ctrls1.wrQLenPdf::21                  1550                       # What write queue length does an incoming req see
system.mem_ctrls1.wrQLenPdf::22                  1553                       # What write queue length does an incoming req see
system.mem_ctrls1.wrQLenPdf::23                  1541                       # What write queue length does an incoming req see
system.mem_ctrls1.wrQLenPdf::24                  1527                       # What write queue length does an incoming req see
system.mem_ctrls1.wrQLenPdf::25                  1525                       # What write queue length does an incoming req see
system.mem_ctrls1.wrQLenPdf::26                  1542                       # What write queue length does an incoming req see
system.mem_ctrls1.wrQLenPdf::27                  1546                       # What write queue length does an incoming req see
system.mem_ctrls1.wrQLenPdf::28                  1527                       # What write queue length does an incoming req see
system.mem_ctrls1.wrQLenPdf::29                  1513                       # What write queue length does an incoming req see
system.mem_ctrls1.wrQLenPdf::30                  1517                       # What write queue length does an incoming req see
system.mem_ctrls1.wrQLenPdf::31                  1530                       # What write queue length does an incoming req see
system.mem_ctrls1.wrQLenPdf::32                  1528                       # What write queue length does an incoming req see
system.mem_ctrls1.wrQLenPdf::33                    49                       # What write queue length does an incoming req see
system.mem_ctrls1.wrQLenPdf::34                     9                       # What write queue length does an incoming req see
system.mem_ctrls1.wrQLenPdf::35                     1                       # What write queue length does an incoming req see
system.mem_ctrls1.wrQLenPdf::36                     0                       # What write queue length does an incoming req see
system.mem_ctrls1.wrQLenPdf::37                     0                       # What write queue length does an incoming req see
system.mem_ctrls1.wrQLenPdf::38                     0                       # What write queue length does an incoming req see
system.mem_ctrls1.wrQLenPdf::39                     0                       # What write queue length does an incoming req see
system.mem_ctrls1.wrQLenPdf::40                     0                       # What write queue length does an incoming req see
system.mem_ctrls1.wrQLenPdf::41                     0                       # What write queue length does an incoming req see
system.mem_ctrls1.wrQLenPdf::42                     0                       # What write queue length does an incoming req see
system.mem_ctrls1.wrQLenPdf::43                     0                       # What write queue length does an incoming req see
system.mem_ctrls1.wrQLenPdf::44                     0                       # What write queue length does an incoming req see
system.mem_ctrls1.wrQLenPdf::45                     0                       # What write queue length does an incoming req see
system.mem_ctrls1.wrQLenPdf::46                     0                       # What write queue length does an incoming req see
system.mem_ctrls1.wrQLenPdf::47                     0                       # What write queue length does an incoming req see
system.mem_ctrls1.wrQLenPdf::48                     0                       # What write queue length does an incoming req see
system.mem_ctrls1.wrQLenPdf::49                     0                       # What write queue length does an incoming req see
system.mem_ctrls1.wrQLenPdf::50                     0                       # What write queue length does an incoming req see
system.mem_ctrls1.wrQLenPdf::51                     0                       # What write queue length does an incoming req see
system.mem_ctrls1.wrQLenPdf::52                     0                       # What write queue length does an incoming req see
system.mem_ctrls1.wrQLenPdf::53                     0                       # What write queue length does an incoming req see
system.mem_ctrls1.wrQLenPdf::54                     0                       # What write queue length does an incoming req see
system.mem_ctrls1.wrQLenPdf::55                     0                       # What write queue length does an incoming req see
system.mem_ctrls1.wrQLenPdf::56                     0                       # What write queue length does an incoming req see
system.mem_ctrls1.wrQLenPdf::57                     0                       # What write queue length does an incoming req see
system.mem_ctrls1.wrQLenPdf::58                     0                       # What write queue length does an incoming req see
system.mem_ctrls1.wrQLenPdf::59                     0                       # What write queue length does an incoming req see
system.mem_ctrls1.wrQLenPdf::60                     0                       # What write queue length does an incoming req see
system.mem_ctrls1.wrQLenPdf::61                     0                       # What write queue length does an incoming req see
system.mem_ctrls1.wrQLenPdf::62                     0                       # What write queue length does an incoming req see
system.mem_ctrls1.wrQLenPdf::63                     0                       # What write queue length does an incoming req see
system.mem_ctrls1.bytesPerActivate::samples       109534                       # Bytes accessed per row activation
system.mem_ctrls1.bytesPerActivate::mean   114.484708                       # Bytes accessed per row activation
system.mem_ctrls1.bytesPerActivate::gmean    89.500329                       # Bytes accessed per row activation
system.mem_ctrls1.bytesPerActivate::stdev   116.231435                       # Bytes accessed per row activation
system.mem_ctrls1.bytesPerActivate::0-127        76839     70.15%     70.15% # Bytes accessed per row activation
system.mem_ctrls1.bytesPerActivate::128-255        20894     19.08%     89.23% # Bytes accessed per row activation
system.mem_ctrls1.bytesPerActivate::256-383         5499      5.02%     94.25% # Bytes accessed per row activation
system.mem_ctrls1.bytesPerActivate::384-511         3141      2.87%     97.11% # Bytes accessed per row activation
system.mem_ctrls1.bytesPerActivate::512-639         1721      1.57%     98.69% # Bytes accessed per row activation
system.mem_ctrls1.bytesPerActivate::640-767         1080      0.99%     99.67% # Bytes accessed per row activation
system.mem_ctrls1.bytesPerActivate::768-895          137      0.13%     99.80% # Bytes accessed per row activation
system.mem_ctrls1.bytesPerActivate::896-1023           82      0.07%     99.87% # Bytes accessed per row activation
system.mem_ctrls1.bytesPerActivate::1024-1151          141      0.13%    100.00% # Bytes accessed per row activation
system.mem_ctrls1.bytesPerActivate::total       109534                       # Bytes accessed per row activation
system.mem_ctrls1.rdPerTurnAround::samples         1476                       # Reads before turning the bus around for writes
system.mem_ctrls1.rdPerTurnAround::mean    116.313008                       # Reads before turning the bus around for writes
system.mem_ctrls1.rdPerTurnAround::gmean    45.500441                       # Reads before turning the bus around for writes
system.mem_ctrls1.rdPerTurnAround::stdev  1739.791735                       # Reads before turning the bus around for writes
system.mem_ctrls1.rdPerTurnAround::0-4095         1475     99.93%     99.93% # Reads before turning the bus around for writes
system.mem_ctrls1.rdPerTurnAround::65536-69631            1      0.07%    100.00% # Reads before turning the bus around for writes
system.mem_ctrls1.rdPerTurnAround::total         1476                       # Reads before turning the bus around for writes
system.mem_ctrls1.wrPerTurnAround::samples         1476                       # Writes before turning the bus around for reads
system.mem_ctrls1.wrPerTurnAround::mean     16.428184                       # Writes before turning the bus around for reads
system.mem_ctrls1.wrPerTurnAround::gmean    16.408685                       # Writes before turning the bus around for reads
system.mem_ctrls1.wrPerTurnAround::stdev     0.820660                       # Writes before turning the bus around for reads
system.mem_ctrls1.wrPerTurnAround::16            1142     77.37%     77.37% # Writes before turning the bus around for reads
system.mem_ctrls1.wrPerTurnAround::17              50      3.39%     80.76% # Writes before turning the bus around for reads
system.mem_ctrls1.wrPerTurnAround::18             273     18.50%     99.25% # Writes before turning the bus around for reads
system.mem_ctrls1.wrPerTurnAround::19               9      0.61%     99.86% # Writes before turning the bus around for reads
system.mem_ctrls1.wrPerTurnAround::20               1      0.07%     99.93% # Writes before turning the bus around for reads
system.mem_ctrls1.wrPerTurnAround::21               1      0.07%    100.00% # Writes before turning the bus around for reads
system.mem_ctrls1.wrPerTurnAround::total         1476                       # Writes before turning the bus around for reads
system.mem_ctrls1.totQLat                  4846958500                       # Total ticks spent queuing
system.mem_ctrls1.totMemAccLat             8066277250                       # Total ticks spent from burst creation until serviced by the DRAM
system.mem_ctrls1.totBusLat                 858485000                       # Total ticks spent in databus transfers
system.mem_ctrls1.avgQLat                    28229.72                       # Average queueing delay per DRAM burst
system.mem_ctrls1.avgBusLat                   5000.00                       # Average bus latency per DRAM burst
system.mem_ctrls1.avgMemAccLat               46979.72                       # Average memory access latency per DRAM burst
system.mem_ctrls1.avgRdBW                      686.89                       # Average DRAM read bandwidth in MiByte/s
system.mem_ctrls1.avgWrBW                       97.01                       # Average achieved write bandwidth in MiByte/s
system.mem_ctrls1.avgRdBWSys                   686.92                       # Average system read bandwidth in MiByte/s
system.mem_ctrls1.avgWrBWSys                    97.13                       # Average system write bandwidth in MiByte/s
system.mem_ctrls1.peakBW                     12800.00                       # Theoretical peak bandwidth in MiByte/s
system.mem_ctrls1.busUtil                        6.12                       # Data bus utilization in percentage
system.mem_ctrls1.busUtilRead                    5.37                       # Data bus utilization in percentage for reads
system.mem_ctrls1.busUtilWrite                   0.76                       # Data bus utilization in percentage for writes
system.mem_ctrls1.avgRdQLen                      1.60                       # Average read queue length when enqueuing
system.mem_ctrls1.avgWrQLen                     13.00                       # Average write queue length when enqueuing
system.mem_ctrls1.readRowHits                   82140                       # Number of row buffer hits during reads
system.mem_ctrls1.writeRowHits                   4268                       # Number of row buffer hits during writes
system.mem_ctrls1.readRowHitRate                47.84                       # Row buffer hit rate for reads
system.mem_ctrls1.writeRowHitRate               17.58                       # Row buffer hit rate for writes
system.mem_ctrls1.avgGap                     81624.96                       # Average gap between requests
system.mem_ctrls1.pageHitRate                   44.09                       # Row buffer hit rate, read and write combined
system.mem_ctrls1_0.actEnergy               371394240                       # Energy for activate commands per rank (pJ)
system.mem_ctrls1_0.preEnergy               197400720                       # Energy for precharge commands per rank (pJ)
system.mem_ctrls1_0.readEnergy              593669580                       # Energy for read commands per rank (pJ)
system.mem_ctrls1_0.writeEnergy              58761540                       # Energy for write commands per rank (pJ)
system.mem_ctrls1_0.refreshEnergy        1233582480.000000                       # Energy for refresh commands per rank (pJ)
system.mem_ctrls1_0.actBackEnergy          1541226990                       # Energy for active background per rank (pJ)
system.mem_ctrls1_0.preBackEnergy            32477280                       # Energy for precharge background per rank (pJ)
system.mem_ctrls1_0.actPowerDownEnergy     5153206980                       # Energy for active power-down per rank (pJ)
system.mem_ctrls1_0.prePowerDownEnergy      267334560                       # Energy for precharge power-down per rank (pJ)
system.mem_ctrls1_0.selfRefreshEnergy       141469035                       # Energy for self refresh per rank (pJ)
system.mem_ctrls1_0.totalEnergy            9590745015                       # Total energy per rank (pJ)
system.mem_ctrls1_0.averagePower           599.507649                       # Core power per rank (mW)
system.mem_ctrls1_0.totalIdleTime         12531405000                       # Total Idle time Per DRAM Rank
system.mem_ctrls1_0.memoryStateTime::IDLE     17166000                       # Time in different power states
system.mem_ctrls1_0.memoryStateTime::REF    521970000                       # Time in different power states
system.mem_ctrls1_0.memoryStateTime::SREF    535671500                       # Time in different power states
system.mem_ctrls1_0.memoryStateTime::PRE_PDN    696149750                       # Time in different power states
system.mem_ctrls1_0.memoryStateTime::ACT   2925658250                       # Time in different power states
system.mem_ctrls1_0.memoryStateTime::ACT_PDN  11301086500                       # Time in different power states
system.mem_ctrls1_1.actEnergy               410699940                       # Energy for activate commands per rank (pJ)
system.mem_ctrls1_1.preEnergy               218280810                       # Energy for precharge commands per rank (pJ)
system.mem_ctrls1_1.readEnergy              632247000                       # Energy for read commands per rank (pJ)
system.mem_ctrls1_1.writeEnergy              67813020                       # Energy for write commands per rank (pJ)
system.mem_ctrls1_1.refreshEnergy        1261855920.000000                       # Energy for refresh commands per rank (pJ)
system.mem_ctrls1_1.actBackEnergy          1629001860                       # Energy for active background per rank (pJ)
system.mem_ctrls1_1.preBackEnergy            34403040                       # Energy for precharge background per rank (pJ)
system.mem_ctrls1_1.actPowerDownEnergy     5253881520                       # Energy for active power-down per rank (pJ)
system.mem_ctrls1_1.prePowerDownEnergy      235414080                       # Energy for precharge power-down per rank (pJ)
system.mem_ctrls1_1.selfRefreshEnergy        63211590                       # Energy for self refresh per rank (pJ)
system.mem_ctrls1_1.totalEnergy            9806908830                       # Total energy per rank (pJ)
system.mem_ctrls1_1.averagePower           613.019828                       # Core power per rank (mW)
system.mem_ctrls1_1.totalIdleTime         12336007250                       # Total Idle time Per DRAM Rank
system.mem_ctrls1_1.memoryStateTime::IDLE     18813250                       # Time in different power states
system.mem_ctrls1_1.memoryStateTime::REF    534014000                       # Time in different power states
system.mem_ctrls1_1.memoryStateTime::SREF    200784750                       # Time in different power states
system.mem_ctrls1_1.memoryStateTime::PRE_PDN    612850750                       # Time in different power states
system.mem_ctrls1_1.memoryStateTime::ACT   3108713000                       # Time in different power states
system.mem_ctrls1_1.memoryStateTime::ACT_PDN  11522526250                       # Time in different power states
system.mem_ctrls2.pwrStateResidencyTicks::UNDEFINED  15997702000                       # Cumulative time (in ticks) in various power states
system.mem_ctrls2.bytes_read::ruby.dir_cntrl2     11004160                       # Number of bytes read from this memory
system.mem_ctrls2.bytes_read::total          11004160                       # Number of bytes read from this memory
system.mem_ctrls2.bytes_written::ruby.dir_cntrl2      1553472                       # Number of bytes written to this memory
system.mem_ctrls2.bytes_written::total        1553472                       # Number of bytes written to this memory
system.mem_ctrls2.num_reads::ruby.dir_cntrl2       171940                       # Number of read requests responded to by this memory
system.mem_ctrls2.num_reads::total             171940                       # Number of read requests responded to by this memory
system.mem_ctrls2.num_writes::ruby.dir_cntrl2        24273                       # Number of write requests responded to by this memory
system.mem_ctrls2.num_writes::total             24273                       # Number of write requests responded to by this memory
system.mem_ctrls2.bw_read::ruby.dir_cntrl2    687858794                       # Total read bandwidth from this memory (bytes/s)
system.mem_ctrls2.bw_read::total            687858794                       # Total read bandwidth from this memory (bytes/s)
system.mem_ctrls2.bw_write::ruby.dir_cntrl2     97105947                       # Write bandwidth from this memory (bytes/s)
system.mem_ctrls2.bw_write::total            97105947                       # Write bandwidth from this memory (bytes/s)
system.mem_ctrls2.bw_total::ruby.dir_cntrl2    784964741                       # Total bandwidth to/from this memory (bytes/s)
system.mem_ctrls2.bw_total::total           784964741                       # Total bandwidth to/from this memory (bytes/s)
system.mem_ctrls2.readReqs                     171940                       # Number of read requests accepted
system.mem_ctrls2.avgNetLat                      0.00                       # Average network latency to DRAM controller
system.mem_ctrls2.writeReqs                     24273                       # Number of write requests accepted
system.mem_ctrls2.readBursts                   171940                       # Number of DRAM read bursts, including those serviced by the write queue
system.mem_ctrls2.writeBursts                   24273                       # Number of DRAM write bursts, including those merged in the write queue
system.mem_ctrls2.bytesReadDRAM              11003264                       # Total number of bytes read from DRAM
system.mem_ctrls2.bytesReadWrQ                    896                       # Total number of bytes read from write queue
system.mem_ctrls2.bytesWritten                1552000                       # Total number of bytes written to DRAM
system.mem_ctrls2.bytesReadSys               11004160                       # Total read bytes from the system interface side
system.mem_ctrls2.bytesWrittenSys             1553472                       # Total written bytes from the system interface side
system.mem_ctrls2.servicedByWrQ                    14                       # Number of DRAM read bursts serviced by the write queue
system.mem_ctrls2.mergedWrBursts                    0                       # Number of DRAM write bursts merged with an existing one
system.mem_ctrls2.neitherReadNorWriteReqs            0                       # Number of requests that are neither read nor write
system.mem_ctrls2.perBankRdBursts::0            10755                       # Per bank write bursts
system.mem_ctrls2.perBankRdBursts::1            10610                       # Per bank write bursts
system.mem_ctrls2.perBankRdBursts::2            10545                       # Per bank write bursts
system.mem_ctrls2.perBankRdBursts::3            10650                       # Per bank write bursts
system.mem_ctrls2.perBankRdBursts::4            10130                       # Per bank write bursts
system.mem_ctrls2.perBankRdBursts::5            10079                       # Per bank write bursts
system.mem_ctrls2.perBankRdBursts::6            10122                       # Per bank write bursts
system.mem_ctrls2.perBankRdBursts::7            10320                       # Per bank write bursts
system.mem_ctrls2.perBankRdBursts::8            10234                       # Per bank write bursts
system.mem_ctrls2.perBankRdBursts::9            10752                       # Per bank write bursts
system.mem_ctrls2.perBankRdBursts::10           11291                       # Per bank write bursts
system.mem_ctrls2.perBankRdBursts::11           11093                       # Per bank write bursts
system.mem_ctrls2.perBankRdBursts::12           11791                       # Per bank write bursts
system.mem_ctrls2.perBankRdBursts::13           11710                       # Per bank write bursts
system.mem_ctrls2.perBankRdBursts::14           10953                       # Per bank write bursts
system.mem_ctrls2.perBankRdBursts::15           10891                       # Per bank write bursts
system.mem_ctrls2.perBankWrBursts::0             1493                       # Per bank write bursts
system.mem_ctrls2.perBankWrBursts::1             1408                       # Per bank write bursts
system.mem_ctrls2.perBankWrBursts::2             1475                       # Per bank write bursts
system.mem_ctrls2.perBankWrBursts::3             1549                       # Per bank write bursts
system.mem_ctrls2.perBankWrBursts::4             1342                       # Per bank write bursts
system.mem_ctrls2.perBankWrBursts::5             1341                       # Per bank write bursts
system.mem_ctrls2.perBankWrBursts::6             1311                       # Per bank write bursts
system.mem_ctrls2.perBankWrBursts::7             1348                       # Per bank write bursts
system.mem_ctrls2.perBankWrBursts::8             1343                       # Per bank write bursts
system.mem_ctrls2.perBankWrBursts::9             1416                       # Per bank write bursts
system.mem_ctrls2.perBankWrBursts::10            1634                       # Per bank write bursts
system.mem_ctrls2.perBankWrBursts::11            1635                       # Per bank write bursts
system.mem_ctrls2.perBankWrBursts::12            1900                       # Per bank write bursts
system.mem_ctrls2.perBankWrBursts::13            1882                       # Per bank write bursts
system.mem_ctrls2.perBankWrBursts::14            1581                       # Per bank write bursts
system.mem_ctrls2.perBankWrBursts::15            1592                       # Per bank write bursts
system.mem_ctrls2.numRdRetry                        0                       # Number of times read queue was full causing retry
system.mem_ctrls2.numWrRetry                        0                       # Number of times write queue was full causing retry
system.mem_ctrls2.totGap                  15996743500                       # Total gap between requests
system.mem_ctrls2.readPktSize::0                    0                       # Read request sizes (log2)
system.mem_ctrls2.readPktSize::1                    0                       # Read request sizes (log2)
system.mem_ctrls2.readPktSize::2                    0                       # Read request sizes (log2)
system.mem_ctrls2.readPktSize::3                    0                       # Read request sizes (log2)
system.mem_ctrls2.readPktSize::4                    0                       # Read request sizes (log2)
system.mem_ctrls2.readPktSize::5                    0                       # Read request sizes (log2)
system.mem_ctrls2.readPktSize::6               171940                       # Read request sizes (log2)
system.mem_ctrls2.writePktSize::0                   0                       # Write request sizes (log2)
system.mem_ctrls2.writePktSize::1                   0                       # Write request sizes (log2)
system.mem_ctrls2.writePktSize::2                   0                       # Write request sizes (log2)
system.mem_ctrls2.writePktSize::3                   0                       # Write request sizes (log2)
system.mem_ctrls2.writePktSize::4                   0                       # Write request sizes (log2)
system.mem_ctrls2.writePktSize::5                   0                       # Write request sizes (log2)
system.mem_ctrls2.writePktSize::6               24273                       # Write request sizes (log2)
system.mem_ctrls2.rdQLenPdf::0                  82531                       # What read queue length does an incoming req see
system.mem_ctrls2.rdQLenPdf::1                  45380                       # What read queue length does an incoming req see
system.mem_ctrls2.rdQLenPdf::2                  23519                       # What read queue length does an incoming req see
system.mem_ctrls2.rdQLenPdf::3                  11689                       # What read queue length does an incoming req see
system.mem_ctrls2.rdQLenPdf::4                   5467                       # What read queue length does an incoming req see
system.mem_ctrls2.rdQLenPdf::5                   2249                       # What read queue length does an incoming req see
system.mem_ctrls2.rdQLenPdf::6                    803                       # What read queue length does an incoming req see
system.mem_ctrls2.rdQLenPdf::7                    229                       # What read queue length does an incoming req see
system.mem_ctrls2.rdQLenPdf::8                     44                       # What read queue length does an incoming req see
system.mem_ctrls2.rdQLenPdf::9                     10                       # What read queue length does an incoming req see
system.mem_ctrls2.rdQLenPdf::10                     2                       # What read queue length does an incoming req see
system.mem_ctrls2.rdQLenPdf::11                     1                       # What read queue length does an incoming req see
system.mem_ctrls2.rdQLenPdf::12                     2                       # What read queue length does an incoming req see
system.mem_ctrls2.rdQLenPdf::13                     0                       # What read queue length does an incoming req see
system.mem_ctrls2.rdQLenPdf::14                     0                       # What read queue length does an incoming req see
system.mem_ctrls2.rdQLenPdf::15                     0                       # What read queue length does an incoming req see
system.mem_ctrls2.rdQLenPdf::16                     0                       # What read queue length does an incoming req see
system.mem_ctrls2.rdQLenPdf::17                     0                       # What read queue length does an incoming req see
system.mem_ctrls2.rdQLenPdf::18                     0                       # What read queue length does an incoming req see
system.mem_ctrls2.rdQLenPdf::19                     0                       # What read queue length does an incoming req see
system.mem_ctrls2.rdQLenPdf::20                     0                       # What read queue length does an incoming req see
system.mem_ctrls2.rdQLenPdf::21                     0                       # What read queue length does an incoming req see
system.mem_ctrls2.rdQLenPdf::22                     0                       # What read queue length does an incoming req see
system.mem_ctrls2.rdQLenPdf::23                     0                       # What read queue length does an incoming req see
system.mem_ctrls2.rdQLenPdf::24                     0                       # What read queue length does an incoming req see
system.mem_ctrls2.rdQLenPdf::25                     0                       # What read queue length does an incoming req see
system.mem_ctrls2.rdQLenPdf::26                     0                       # What read queue length does an incoming req see
system.mem_ctrls2.rdQLenPdf::27                     0                       # What read queue length does an incoming req see
system.mem_ctrls2.rdQLenPdf::28                     0                       # What read queue length does an incoming req see
system.mem_ctrls2.rdQLenPdf::29                     0                       # What read queue length does an incoming req see
system.mem_ctrls2.rdQLenPdf::30                     0                       # What read queue length does an incoming req see
system.mem_ctrls2.rdQLenPdf::31                     0                       # What read queue length does an incoming req see
system.mem_ctrls2.wrQLenPdf::0                      1                       # What write queue length does an incoming req see
system.mem_ctrls2.wrQLenPdf::1                      1                       # What write queue length does an incoming req see
system.mem_ctrls2.wrQLenPdf::2                      1                       # What write queue length does an incoming req see
system.mem_ctrls2.wrQLenPdf::3                      1                       # What write queue length does an incoming req see
system.mem_ctrls2.wrQLenPdf::4                      1                       # What write queue length does an incoming req see
system.mem_ctrls2.wrQLenPdf::5                      1                       # What write queue length does an incoming req see
system.mem_ctrls2.wrQLenPdf::6                      1                       # What write queue length does an incoming req see
system.mem_ctrls2.wrQLenPdf::7                      1                       # What write queue length does an incoming req see
system.mem_ctrls2.wrQLenPdf::8                      1                       # What write queue length does an incoming req see
system.mem_ctrls2.wrQLenPdf::9                      1                       # What write queue length does an incoming req see
system.mem_ctrls2.wrQLenPdf::10                     1                       # What write queue length does an incoming req see
system.mem_ctrls2.wrQLenPdf::11                     1                       # What write queue length does an incoming req see
system.mem_ctrls2.wrQLenPdf::12                     1                       # What write queue length does an incoming req see
system.mem_ctrls2.wrQLenPdf::13                     1                       # What write queue length does an incoming req see
system.mem_ctrls2.wrQLenPdf::14                     1                       # What write queue length does an incoming req see
system.mem_ctrls2.wrQLenPdf::15                   283                       # What write queue length does an incoming req see
system.mem_ctrls2.wrQLenPdf::16                   343                       # What write queue length does an incoming req see
system.mem_ctrls2.wrQLenPdf::17                   832                       # What write queue length does an incoming req see
system.mem_ctrls2.wrQLenPdf::18                  1324                       # What write queue length does an incoming req see
system.mem_ctrls2.wrQLenPdf::19                  1511                       # What write queue length does an incoming req see
[...]
system.ruby.L2Cache_Controller.SS.L2_Replacement_clean::total        11775                      
system.ruby.L2Cache_Controller.M.L1_GET_INSTR |          14     25.00%     25.00% |           0      0.00%     25.00% |           0      0.00%     25.00% |           0      0.00%     25.00% |           0      0.00%     25.00% |           0      0.00%     25.00% |           0      0.00%     25.00% |           0      0.00%     25.00% |          14     25.00%     50.00% |          14     25.00%     75.00% |           0      0.00%     75.00% |           0      0.00%     75.00% |           0      0.00%     75.00% |           0      0.00%     75.00% |          14     25.00%    100.00% |           0      0.00%    100.00%
system.ruby.L2Cache_Controller.M.L1_GET_INSTR::total           56                      
system.ruby.L2Cache_Controller.M.L1_GETS |       10364      6.22%      6.22% |       10437      6.27%     12.49% |       10315      6.20%     18.69% |       10554      6.34%     25.03% |       10154      6.10%     31.13% |       10023      6.02%     37.15% |       10154      6.10%     43.24% |       10379      6.23%     49.48% |       10397      6.24%     55.72% |       10173      6.11%     61.83% |       10386      6.24%     68.07% |       10999      6.61%     74.68% |       10750      6.46%     81.13% |       10919      6.56%     87.69% |       10646      6.39%     94.08% |        9850      5.92%    100.00%
system.ruby.L2Cache_Controller.M.L1_GETS::total       166500                      
system.ruby.L2Cache_Controller.M.L1_GETX |        1387      6.27%      6.27% |        1460      6.60%     12.88% |        1477      6.68%     19.55% |        1370      6.20%     25.75% |        1409      6.37%     32.12% |        1338      6.05%     38.17% |        1294      5.85%     44.03% |        1455      6.58%     50.61% |        1339      6.06%     56.66% |        1404      6.35%     63.01% |        1400      6.33%     69.34% |        1356      6.13%     75.47% |        1347      6.09%     81.57% |        1255      5.68%     87.24% |        1393      6.30%     93.54% |        1428      6.46%    100.00%
system.ruby.L2Cache_Controller.M.L1_GETX::total        22112                      
system.ruby.L2Cache_Controller.M.L2_Replacement |        6116      6.34%      6.34% |        6038      6.26%     12.59% |        5994      6.21%     18.80% |        6074      6.29%     25.09% |        5966      6.18%     31.27% |        6019      6.24%     37.51% |        5958      6.17%     43.68% |        6040      6.26%     49.94% |        6075      6.29%     56.23% |        5939      6.15%     62.39% |        6027      6.24%     68.63% |        5992      6.21%     74.84% |        6004      6.22%     81.06% |        6098      6.32%     87.38% |        6117      6.34%     93.71% |        6068      6.29%    100.00%
system.ruby.L2Cache_Controller.M.L2_Replacement::total        96525                      
system.ruby.L2Cache_Controller.M.L2_Replacement_clean |        3772      6.28%      6.28% |        3651      6.08%     12.35% |        3569      5.94%     18.29% |        3719      6.19%     24.48% |        3635      6.05%     30.53% |        3700      6.16%     36.69% |        3782      6.29%     42.98% |        3790      6.31%     49.29% |        3848      6.40%     55.69% |        3685      6.13%     61.82% |        3784      6.30%     68.12% |        3763      6.26%     74.38% |        3894      6.48%     80.86% |        3837      6.38%     87.24% |        3831      6.38%     93.62% |        3834      6.38%    100.00%
system.ruby.L2Cache_Controller.M.L2_Replacement_clean::total        60094                      
system.ruby.L2Cache_Controller.MT.L1_GETS |          70      3.95%      3.95% |          70      3.95%      7.91% |          98      5.54%     13.45% |          98      5.54%     18.98% |          98      5.54%     24.52% |         140      7.91%     32.43% |         140      7.91%     40.34% |         140      7.91%     48.25% |         140      7.91%     56.16% |         140      7.91%     64.07% |         134      7.57%     71.64% |         138      7.80%     79.44% |         112      6.33%     85.76% |         112      6.33%     92.09% |          70      3.95%     96.05% |          70      3.95%    100.00%
system.ruby.L2Cache_Controller.MT.L1_GETS::total         1770                      
system.ruby.L2Cache_Controller.MT.L1_GETX |           0      0.00%      0.00% |           0      0.00%      0.00% |           0      0.00%      0.00% |           0      0.00%      0.00% |           0      0.00%      0.00% |           0      0.00%      0.00% |           0      0.00%      0.00% |           0      0.00%      0.00% |           0      0.00%      0.00% |           0      0.00%      0.00% |           3     75.00%     75.00% |           1     25.00%    100.00% |           0      0.00%    100.00% |           0      0.00%    100.00% |           0      0.00%    100.00% |           0      0.00%    100.00%
system.ruby.L2Cache_Controller.MT.L1_GETX::total            4                      
system.ruby.L2Cache_Controller.MT.L1_PUTX |       52519      6.25%      6.25% |       52509      6.25%     12.50% |       52165      6.21%     18.71% |       52661      6.27%     24.98% |       52077      6.20%     31.18% |       52023      6.19%     37.37% |       52191      6.21%     43.58% |       52609      6.26%     49.85% |       52616      6.26%     56.11% |       52145      6.21%     62.32% |       52495      6.25%     68.57% |       53073      6.32%     74.88% |       53032      6.31%     81.20% |       53073      6.32%     87.51% |       52819      6.29%     93.80% |       52075      6.20%    100.00%
system.ruby.L2Cache_Controller.MT.L1_PUTX::total       840082                      
system.ruby.L2Cache_Controller.MT.L2_Replacement |          11      8.15%      8.15% |          10      7.41%     15.56% |          15     11.11%     26.67% |          12      8.89%     35.56% |          10      7.41%     42.96% |          11      8.15%     51.11% |           8      5.93%     57.04% |           8      5.93%     62.96% |          11      8.15%     71.11% |           4      2.96%     74.07% |           7      5.19%     79.26% |           8      5.93%     85.19% |           7      5.19%     90.37% |           4      2.96%     93.33% |           8      5.93%     99.26% |           1      0.74%    100.00%
system.ruby.L2Cache_Controller.MT.L2_Replacement::total          135                      
system.ruby.L2Cache_Controller.MT.L2_Replacement_clean |          38      6.71%      6.71% |          40      7.07%     13.78% |          27      4.77%     18.55% |          29      5.12%     23.67% |          33      5.83%     29.51% |          37      6.54%     36.04% |          35      6.18%     42.23% |          30      5.30%     47.53% |          34      6.01%     53.53% |          36      6.36%     59.89% |          37      6.54%     66.43% |          31      5.48%     71.91% |          39      6.89%     78.80% |          38      6.71%     85.51% |          39      6.89%     92.40% |          43      7.60%    100.00%
system.ruby.L2Cache_Controller.MT.L2_Replacement_clean::total          566                      
system.ruby.L2Cache_Controller.M_I.L1_GETS |           0      0.00%      0.00% |           0      0.00%      0.00% |           0      0.00%      0.00% |           0      0.00%      0.00% |           0      0.00%      0.00% |           0      0.00%      0.00% |           0      0.00%      0.00% |           1    100.00%    100.00% |           0      0.00%    100.00% |           0      0.00%    100.00% |           0      0.00%    100.00% |           0      0.00%    100.00% |           0      0.00%    100.00% |           0      0.00%    100.00% |           0      0.00%    100.00% |           0      0.00%    100.00%
system.ruby.L2Cache_Controller.M_I.L1_GETS::total            1                      
system.ruby.L2Cache_Controller.M_I.Mem_Ack |       10649      6.30%      6.30% |       10508      6.21%     12.51% |       10399      6.15%     18.66% |       10540      6.23%     24.89% |       10399      6.15%     31.04% |       10558      6.24%     37.28% |       10554      6.24%     43.52% |       10611      6.27%     49.79% |       10780      6.37%     56.16% |       10288      6.08%     62.25% |       10503      6.21%     68.46% |       10503      6.21%     74.67% |       10658      6.30%     80.97% |       10715      6.33%     87.30% |       10817      6.40%     93.70% |       10660      6.30%    100.00%
system.ruby.L2Cache_Controller.M_I.Mem_Ack::total       169142                      
system.ruby.L2Cache_Controller.MT_I.WB_Data |           3      4.92%      4.92% |           6      9.84%     14.75% |           9     14.75%     29.51% |           6      9.84%     39.34% |           5      8.20%     47.54% |           5      8.20%     55.74% |           4      6.56%     62.30% |           3      4.92%     67.21% |           4      6.56%     73.77% |           2      3.28%     77.05% |           3      4.92%     81.97% |           4      6.56%     88.52% |           3      4.92%     93.44% |           0      0.00%     93.44% |           3      4.92%     98.36% |           1      1.64%    100.00%
system.ruby.L2Cache_Controller.MT_I.WB_Data::total           61                      
system.ruby.L2Cache_Controller.MT_I.Ack_all |           8     10.81%     10.81% |           4      5.41%     16.22% |           6      8.11%     24.32% |           6      8.11%     32.43% |           5      6.76%     39.19% |           6      8.11%     47.30% |           4      5.41%     52.70% |           5      6.76%     59.46% |           7      9.46%     68.92% |           2      2.70%     71.62% |           4      5.41%     77.03% |           4      5.41%     82.43% |           4      5.41%     87.84% |           4      5.41%     93.24% |           5      6.76%    100.00% |           0      0.00%    100.00%
system.ruby.L2Cache_Controller.MT_I.Ack_all::total           74                      
system.ruby.L2Cache_Controller.MCT_I.WB_Data |          35      6.72%      6.72% |          38      7.29%     14.01% |          27      5.18%     19.19% |          27      5.18%     24.38% |          29      5.57%     29.94% |          35      6.72%     36.66% |          31      5.95%     42.61% |          27      5.18%     47.79% |          31      5.95%     53.74% |          32      6.14%     59.88% |          34      6.53%     66.41% |          26      4.99%     71.40% |          34      6.53%     77.93% |          37      7.10%     85.03% |          37      7.10%     92.13% |          41      7.87%    100.00%
system.ruby.L2Cache_Controller.MCT_I.WB_Data::total          521                      
system.ruby.L2Cache_Controller.MCT_I.Ack_all |           3      6.67%      6.67% |           2      4.44%     11.11% |           0      0.00%     11.11% |           2      4.44%     15.56% |           4      8.89%     24.44% |           2      4.44%     28.89% |           4      8.89%     37.78% |           3      6.67%     44.44% |           3      6.67%     51.11% |           4      8.89%     60.00% |           3      6.67%     66.67% |           5     11.11%     77.78% |           5     11.11%     88.89% |           1      2.22%     91.11% |           2      4.44%     95.56% |           2      4.44%    100.00%
system.ruby.L2Cache_Controller.MCT_I.Ack_all::total           45                      
system.ruby.L2Cache_Controller.I_I.Ack_all |         710      6.03%      6.03% |         767      6.51%     12.54% |         792      6.73%     19.27% |         704      5.98%     25.25% |         752      6.39%     31.63% |         785      6.67%     38.30% |         769      6.53%     44.83% |         741      6.29%     51.13% |         806      6.85%     57.97% |         621      5.27%     63.24% |         643      5.46%     68.70% |         704      5.98%     74.68% |         711      6.04%     80.72% |         736      6.25%     86.97% |         821      6.97%     93.94% |         713      6.06%    100.00%
system.ruby.L2Cache_Controller.I_I.Ack_all::total        11775                      
system.ruby.L2Cache_Controller.S_I.Ack   |           2      4.26%      4.26% |           2      4.26%      8.51% |           2      4.26%     12.77% |           2      4.26%     17.02% |           3      6.38%     23.40% |           6     12.77%     36.17% |           2      4.26%     40.43% |           2      4.26%     44.68% |           6     12.77%     57.45% |           3      6.38%     63.83% |           5     10.64%     74.47% |           5     10.64%     85.11% |           3      6.38%     91.49% |           2      4.26%     95.74% |           1      2.13%     97.87% |           1      2.13%    100.00%
system.ruby.L2Cache_Controller.S_I.Ack::total           47                      
system.ruby.L2Cache_Controller.S_I.Ack_all |           2      4.26%      4.26% |           2      4.26%      8.51% |           2      4.26%     12.77% |           2      4.26%     17.02% |           3      6.38%     23.40% |           6     12.77%     36.17% |           2      4.26%     40.43% |           2      4.26%     44.68% |           6     12.77%     57.45% |           3      6.38%     63.83% |           5     10.64%     74.47% |           5     10.64%     85.11% |           3      6.38%     91.49% |           2      4.26%     95.74% |           1      2.13%     97.87% |           1      2.13%    100.00%
system.ruby.L2Cache_Controller.S_I.Ack_all::total           47                      
system.ruby.L2Cache_Controller.ISS.Mem_Data |       29264      6.27%      6.27% |       29018      6.21%     12.48% |       28757      6.16%     18.64% |       29168      6.25%     24.88% |       28945      6.20%     31.08% |       29133      6.24%     37.32% |       29201      6.25%     43.57% |       29228      6.26%     49.83% |       29364      6.29%     56.12% |       29098      6.23%     62.35% |       29215      6.26%     68.61% |       29254      6.26%     74.87% |       29462      6.31%     81.18% |       29388      6.29%     87.47% |       29252      6.26%     93.73% |       29261      6.27%    100.00%
system.ruby.L2Cache_Controller.ISS.Mem_Data::total       467008                      
system.ruby.L2Cache_Controller.IS.Mem_Data |        1362      6.37%      6.37% |        1369      6.41%     12.78% |        1511      7.07%     19.85% |        1302      6.09%     25.95% |        1353      6.33%     32.28% |        1349      6.31%     38.59% |        1289      6.03%     44.62% |        1305      6.11%     50.73% |        1381      6.46%     57.20% |        1170      5.48%     62.67% |        1255      5.87%     68.54% |        1277      5.98%     74.52% |        1239      5.80%     80.32% |        1315      6.15%     86.47% |        1531      7.17%     93.64% |        1359      6.36%    100.00%
system.ruby.L2Cache_Controller.IS.Mem_Data::total        21367                      
system.ruby.L2Cache_Controller.IM.Mem_Data |       12428      6.23%      6.23% |       12518      6.28%     12.51% |       12538      6.29%     18.79% |       12507      6.27%     25.06% |       12506      6.27%     31.33% |       12481      6.26%     37.59% |       12494      6.26%     43.85% |       12496      6.26%     50.12% |       12456      6.24%     56.36% |       12420      6.23%     62.59% |       12445      6.24%     68.83% |       12416      6.22%     75.05% |       12411      6.22%     81.27% |       12446      6.24%     87.51% |       12452      6.24%     93.75% |       12457      6.25%    100.00%
system.ruby.L2Cache_Controller.IM.Mem_Data::total       199471                      
system.ruby.L2Cache_Controller.SS_MB.Exclusive_Unblock |          42      3.91%      3.91% |          42      3.91%      7.82% |          70      6.52%     14.34% |          56      5.21%     19.55% |          56      5.21%     24.77% |          84      7.82%     32.59% |          84      7.82%     40.41% |          84      7.82%     48.23% |          84      7.82%     56.05% |          84      7.82%     63.87% |          81      7.54%     71.42% |          83      7.73%     79.14% |          70      6.52%     85.66% |          70      6.52%     92.18% |          42      3.91%     96.09% |          42      3.91%    100.00%
system.ruby.L2Cache_Controller.SS_MB.Exclusive_Unblock::total         1074                      
system.ruby.L2Cache_Controller.MT_MB.Exclusive_Unblock |       53443      6.25%      6.25% |       53433      6.25%     12.50% |       53087      6.21%     18.71% |       53599      6.27%     24.98% |       53014      6.20%     31.18% |       52975      6.20%     37.37% |       53143      6.21%     43.59% |       53558      6.26%     49.85% |       53556      6.26%     56.11% |       53095      6.21%     62.32% |       53449      6.25%     68.57% |       54026      6.32%     74.89% |       53970      6.31%     81.20% |       54008      6.32%     87.52% |       53743      6.29%     93.80% |       52996      6.20%    100.00%
system.ruby.L2Cache_Controller.MT_MB.Exclusive_Unblock::total       855095                      
system.ruby.L2Cache_Controller.MT_IIB.WB_Data |          69      3.96%      3.96% |          69      3.96%      7.91% |          97      5.56%     13.47% |          97      5.56%     19.04% |          97      5.56%     24.60% |         140      8.03%     32.63% |         140      8.03%     40.65% |         136      7.80%     48.45% |         138      7.91%     56.36% |         137      7.86%     64.22% |         132      7.57%     71.79% |         137      7.86%     79.64% |         108      6.19%     85.84% |         108      6.19%     92.03% |          69      3.96%     95.99% |          70      4.01%    100.00%
system.ruby.L2Cache_Controller.MT_IIB.WB_Data::total         1744                      
system.ruby.L2Cache_Controller.MT_IIB.Unblock |           1      3.85%      3.85% |           1      3.85%      7.69% |           1      3.85%     11.54% |           1      3.85%     15.38% |           1      3.85%     19.23% |           0      0.00%     19.23% |           0      0.00%     19.23% |           4     15.38%     34.62% |           2      7.69%     42.31% |           3     11.54%     53.85% |           2      7.69%     61.54% |           1      3.85%     65.38% |           4     15.38%     80.77% |           4     15.38%     96.15% |           1      3.85%    100.00% |           0      0.00%    100.00%
system.ruby.L2Cache_Controller.MT_IIB.Unblock::total           26                      
system.ruby.L2Cache_Controller.MT_IB.WB_Data |           1      3.85%      3.85% |           1      3.85%      7.69% |           1      3.85%     11.54% |           1      3.85%     15.38% |           1      3.85%     19.23% |           0      0.00%     19.23% |           0      0.00%     19.23% |           4     15.38%     34.62% |           2      7.69%     42.31% |           3     11.54%     53.85% |           2      7.69%     61.54% |           1      3.85%     65.38% |           4     15.38%     80.77% |           4     15.38%     96.15% |           1      3.85%    100.00% |           0      0.00%    100.00%
system.ruby.L2Cache_Controller.MT_IB.WB_Data::total           26                      
system.ruby.L2Cache_Controller.MT_SB.Unblock |          69      3.96%      3.96% |          69      3.96%      7.91% |          97      5.56%     13.47% |          97      5.56%     19.04% |          97      5.56%     24.60% |         140      8.03%     32.63% |         140      8.03%     40.65% |         136      7.80%     48.45% |         138      7.91%     56.36% |         137      7.86%     64.22% |         132      7.57%     71.79% |         137      7.86%     79.64% |         108      6.19%     85.84% |         108      6.19%     92.03% |          69      3.96%     95.99% |          70      4.01%    100.00%
system.ruby.L2Cache_Controller.MT_SB.Unblock::total         1744                      

---------- End Simulation Statistics   ----------
